*SPEF "IEEE 1481-1998"
*DESIGN "IIR_1lookahead"
*DATE "Fri Nov  5 02:11:14 2021"
*VENDOR "Cadence Design Systems, Inc."
*PROGRAM "Innovus"
*VERSION "17.11-s080_1"
*DESIGN_FLOW "COUPLING C" "PIN_CAP NONE" "NAME_SCOPE LOCAL"
*DIVIDER /
*DELIMITER :
*BUS_DELIMITER []
*T_UNIT 1 NS
*C_UNIT 1 PF
*R_UNIT 1 OHM
*L_UNIT 1 HENRY

// MMMC spef file for corner 'my_rc'

*NAME_MAP

*1 FE_OFN22_i_DP_i_MULTIPLIER_C0_mult_28_n323
*2 FE_OFN21_i_DP_i_MULTIPLIER_C1_mult_28_n360
*3 FE_OFN20_i_DP_i_MULTIPLIER_C2_mult_28_n360
*4 FE_OFN19_i_DP_i_MULTIPLIER_C1_mult_28_n361
*5 FE_OFN18_i_DP_i_MULTIPLIER_C1_mult_28_n359
*6 FE_OFN17_RST_N
*7 FE_OFN16_RST_N
*8 FE_OFN15_RST_N
*9 FE_OFN13_i_DP_i_MULTIPLIER_B0_mult_28_n461
*10 FE_OFN12_i_DP_i_MULTIPLIER_B2_mult_28_n458
*11 FE_OFN11_i_DP_i_MULTIPLIER_B1_mult_28_n443
*12 FE_OFN10_i_DP_i_MULTIPLIER_B1_mult_28_n450
*13 FE_OFN9_i_DP_i_REG_DEL_1_n11
*14 FE_OFN8_i_DP_i_MULTIPLIER_B0_mult_28_n358
*15 FE_OFN7_i_DP_i_MULTIPLIER_C0_mult_28_n324
*16 FE_OFN6_i_DP_i_MULTIPLIER_B0_mult_28_n359
*17 FE_OFN5_i_DP_i_MULTIPLIER_C0_mult_28_n325
*18 FE_OFN4_i_DP_i_MULTIPLIER_B1_mult_28_n361
*19 FE_OFN3_i_DP_i_MULTIPLIER_B0_mult_28_n360
*20 FE_OFN2_i_DP_i_MULTIPLIER_B2_mult_28_n359
*21 FE_OFN1_i_DP_i_MULTIPLIER_B2_mult_28_n360
*22 FE_OFN0_i_DP_i_MULTIPLIER_B2_mult_28_n358
*23 FE_DBTN2_i_DP_i_MULTIPLIER_C2_mult_28_n460
*24 FE_DBTN1_i_DP_i_MULTIPLIER_B0_mult_28_n87
*25 FE_DBTN0_i_DP_i_MULTIPLIER_B2_mult_28_n98
*26 DIN[8]
*27 DIN[7]
*28 DIN[6]
*29 DIN[5]
*30 DIN[4]
*31 DIN[3]
*32 DIN[2]
*33 DIN[1]
*34 DIN[0]
*35 C0[8]
*36 C0[7]
*37 C0[6]
*38 C0[5]
*39 C0[4]
*40 C0[3]
*41 C0[2]
*42 C0[1]
*43 C0[0]
*44 C1[8]
*45 C1[7]
*46 C1[6]
*47 C1[5]
*48 C1[4]
*49 C1[3]
*50 C1[2]
*51 C1[1]
*52 C1[0]
*53 C2[8]
*54 C2[7]
*55 C2[6]
*56 C2[5]
*57 C2[4]
*58 C2[3]
*59 C2[2]
*60 C2[1]
*61 C2[0]
*62 B0[8]
*63 B0[7]
*64 B0[6]
*65 B0[5]
*66 B0[4]
*67 B0[3]
*68 B0[2]
*69 B0[1]
*70 B0[0]
*71 B1[8]
*72 B1[7]
*73 B1[6]
*74 B1[5]
*75 B1[4]
*76 B1[3]
*77 B1[2]
*78 B1[1]
*79 B1[0]
*80 B2[8]
*81 B2[7]
*82 B2[6]
*83 B2[5]
*84 B2[4]
*85 B2[3]
*86 B2[2]
*87 B2[1]
*88 B2[0]
*89 DOUT[8]
*90 DOUT[7]
*91 DOUT[6]
*92 DOUT[5]
*93 DOUT[4]
*94 DOUT[3]
*95 DOUT[2]
*96 DOUT[1]
*97 DOUT[0]
*98 VIN
*99 CLK
*100 RST_N
*101 VOUT
*102 VIN_FROM_REGIN
*103 VIN_FROM_PIPE
*104 i_input_register_DIN_n9
*105 i_input_register_DIN_n7
*106 i_input_register_DIN_n6
*107 i_input_register_DIN_n5
*108 i_input_register_DIN_n3
*109 i_input_register_DIN_n2
*110 i_input_register_DIN_n27
*111 i_input_register_DIN_n26
*112 i_input_register_DIN_n25
*113 i_input_register_DIN_n24
*114 i_input_register_DIN_n23
*115 i_input_register_DIN_n22
*116 i_input_register_DIN_n21
*117 i_input_register_DIN_n20
*118 i_input_register_DIN_n19
*119 i_input_register_DIN_n18
*120 i_input_register_DIN_n17
*121 i_input_register_DIN_n16
*122 i_input_register_DIN_n15
*123 i_input_register_DIN_n14
*124 i_input_register_DIN_n13
*125 i_input_register_DIN_n12
*126 i_input_register_DIN_n11
*127 i_input_register_DIN_n10
*128 i_input_register_DIN_n30
*129 i_DP_i_MULTIPLIER_C0_MULTIPLIER_OUT_P_0_
*130 i_DP_i_MULTIPLIER_C0_MULTIPLIER_OUT_P_1_
*131 i_DP_i_MULTIPLIER_C0_MULTIPLIER_OUT_P_2_
*132 i_DP_i_MULTIPLIER_C0_MULTIPLIER_OUT_P_3_
*133 i_DP_i_MULTIPLIER_C0_MULTIPLIER_OUT_P_4_
*134 i_DP_i_MULTIPLIER_C0_MULTIPLIER_OUT_P_5_
*135 i_DP_i_MULTIPLIER_C0_MULTIPLIER_OUT_P_6_
*136 i_DP_i_MULTIPLIER_C0_MULTIPLIER_OUT_P_7_
*137 i_DP_i_MULTIPLIER_C0_MULTIPLIER_OUT_P_8_
*138 i_DP_i_MULTIPLIER_C0_MULTIPLIER_OUT_P_9_
*139 i_DP_i_MULTIPLIER_C0_MULTIPLIER_OUT_P_17_
*140 i_DP_i_MULTIPLIER_C0_mult_28_n452
*141 i_DP_i_MULTIPLIER_C0_mult_28_n451
*142 i_DP_i_MULTIPLIER_C0_mult_28_n450
*143 i_DP_i_MULTIPLIER_C0_mult_28_n449
*144 i_DP_i_MULTIPLIER_C0_mult_28_n448
*145 i_DP_i_MULTIPLIER_C0_mult_28_n447
*146 i_DP_i_MULTIPLIER_C0_mult_28_n439
*147 i_DP_i_MULTIPLIER_C0_mult_28_n438
*148 i_DP_i_MULTIPLIER_C0_mult_28_n437
*149 i_DP_i_MULTIPLIER_C0_mult_28_n436
*150 i_DP_i_MULTIPLIER_C0_mult_28_n435
*151 i_DP_i_MULTIPLIER_C0_mult_28_n434
*152 i_DP_i_MULTIPLIER_C0_mult_28_n433
*153 i_DP_i_MULTIPLIER_C0_mult_28_n432
*154 i_DP_i_MULTIPLIER_C0_mult_28_n431
*155 i_DP_i_MULTIPLIER_C0_mult_28_n430
*156 i_DP_i_MULTIPLIER_C0_mult_28_n429
*157 i_DP_i_MULTIPLIER_C0_mult_28_n428
*158 i_DP_i_MULTIPLIER_C0_mult_28_n420
*159 i_DP_i_MULTIPLIER_C0_mult_28_n419
*160 i_DP_i_MULTIPLIER_C0_mult_28_n418
*161 i_DP_i_MULTIPLIER_C0_mult_28_n417
*162 i_DP_i_MULTIPLIER_C0_mult_28_n412
*163 i_DP_i_MULTIPLIER_C0_mult_28_n411
*164 i_DP_i_MULTIPLIER_C0_mult_28_n408
*165 i_DP_i_MULTIPLIER_C0_mult_28_n405
*166 i_DP_i_MULTIPLIER_C0_mult_28_n404
*167 i_DP_i_MULTIPLIER_C0_mult_28_n402
*168 i_DP_i_MULTIPLIER_C0_mult_28_n393
*169 i_DP_i_MULTIPLIER_C0_mult_28_n392
*170 i_DP_i_MULTIPLIER_C0_mult_28_n391
*171 i_DP_i_MULTIPLIER_C0_mult_28_n388
*172 i_DP_i_MULTIPLIER_C0_mult_28_n346
*173 i_DP_i_MULTIPLIER_C0_mult_28_n330
*174 i_DP_i_MULTIPLIER_C0_mult_28_n325
*175 i_DP_i_MULTIPLIER_C0_mult_28_n324
*176 i_DP_i_MULTIPLIER_C0_mult_28_n323
*177 i_DP_i_MULTIPLIER_C0_mult_28_n322
*178 i_DP_i_MULTIPLIER_C0_mult_28_n321
*179 i_DP_i_MULTIPLIER_C0_mult_28_n320
*180 i_DP_i_MULTIPLIER_C0_mult_28_n319
*181 i_DP_i_MULTIPLIER_C0_mult_28_n318
*182 i_DP_i_MULTIPLIER_C0_mult_28_n313
*183 i_DP_i_MULTIPLIER_C0_mult_28_n302
*184 i_DP_i_MULTIPLIER_C0_mult_28_n301
*185 i_DP_i_MULTIPLIER_C0_mult_28_n300
*186 i_DP_i_MULTIPLIER_C0_mult_28_n299
*187 i_DP_i_MULTIPLIER_C0_mult_28_n298
*188 i_DP_i_MULTIPLIER_C0_mult_28_n297
*189 i_DP_i_MULTIPLIER_C0_mult_28_n296
*190 i_DP_i_MULTIPLIER_C0_mult_28_n295
*191 i_DP_i_MULTIPLIER_C0_mult_28_n294
*192 i_DP_i_MULTIPLIER_C0_mult_28_n293
*193 i_DP_i_MULTIPLIER_C0_mult_28_n292
*194 i_DP_i_MULTIPLIER_C0_mult_28_n291
*195 i_DP_i_MULTIPLIER_C0_mult_28_n290
*196 i_DP_i_MULTIPLIER_C0_mult_28_n289
*197 i_DP_i_MULTIPLIER_C0_mult_28_n288
*198 i_DP_i_MULTIPLIER_C0_mult_28_n287
*199 i_DP_i_MULTIPLIER_C0_mult_28_n286
*200 i_DP_i_MULTIPLIER_C0_mult_28_n285
*201 i_DP_i_MULTIPLIER_C0_mult_28_n284
*202 i_DP_i_MULTIPLIER_C0_mult_28_n283
*203 i_DP_i_MULTIPLIER_C0_mult_28_n282
*204 i_DP_i_MULTIPLIER_C0_mult_28_n281
*205 i_DP_i_MULTIPLIER_C0_mult_28_n280
*206 i_DP_i_MULTIPLIER_C0_mult_28_n279
*207 i_DP_i_MULTIPLIER_C0_mult_28_n278
*208 i_DP_i_MULTIPLIER_C0_mult_28_n277
*209 i_DP_i_MULTIPLIER_C0_mult_28_n276
*210 i_DP_i_MULTIPLIER_C0_mult_28_n275
*211 i_DP_i_MULTIPLIER_C0_mult_28_n274
*212 i_DP_i_MULTIPLIER_C0_mult_28_n273
*213 i_DP_i_MULTIPLIER_C0_mult_28_n272
*214 i_DP_i_MULTIPLIER_C0_mult_28_n271
*215 i_DP_i_MULTIPLIER_C0_mult_28_n270
*216 i_DP_i_MULTIPLIER_C0_mult_28_n269
*217 i_DP_i_MULTIPLIER_C0_mult_28_n268
*218 i_DP_i_MULTIPLIER_C0_mult_28_n267
*219 i_DP_i_MULTIPLIER_C0_mult_28_n266
*220 i_DP_i_MULTIPLIER_C0_mult_28_n265
*221 i_DP_i_MULTIPLIER_C0_mult_28_n264
*222 i_DP_i_MULTIPLIER_C0_mult_28_n263
*223 i_DP_i_MULTIPLIER_C0_mult_28_n262
*224 i_DP_i_MULTIPLIER_C0_mult_28_n260
*225 i_DP_i_MULTIPLIER_C0_mult_28_n259
*226 i_DP_i_MULTIPLIER_C0_mult_28_n258
*227 i_DP_i_MULTIPLIER_C0_mult_28_n257
*228 i_DP_i_MULTIPLIER_C0_mult_28_n256
*229 i_DP_i_MULTIPLIER_C0_mult_28_n255
*230 i_DP_i_MULTIPLIER_C0_mult_28_n254
*231 i_DP_i_MULTIPLIER_C0_mult_28_n253
*232 i_DP_i_MULTIPLIER_C0_mult_28_n252
*233 i_DP_i_MULTIPLIER_C0_mult_28_n251
*234 i_DP_i_MULTIPLIER_C0_mult_28_n250
*235 i_DP_i_MULTIPLIER_C0_mult_28_n249
*236 i_DP_i_MULTIPLIER_C0_mult_28_n248
*237 i_DP_i_MULTIPLIER_C0_mult_28_n247
*238 i_DP_i_MULTIPLIER_C0_mult_28_n246
*239 i_DP_i_MULTIPLIER_C0_mult_28_n245
*240 i_DP_i_MULTIPLIER_C0_mult_28_n244
*241 i_DP_i_MULTIPLIER_C0_mult_28_n243
*242 i_DP_i_MULTIPLIER_C0_mult_28_n242
*243 i_DP_i_MULTIPLIER_C0_mult_28_n241
*244 i_DP_i_MULTIPLIER_C0_mult_28_n240
*245 i_DP_i_MULTIPLIER_C0_mult_28_n239
*246 i_DP_i_MULTIPLIER_C0_mult_28_n238
*247 i_DP_i_MULTIPLIER_C0_mult_28_n237
*248 i_DP_i_MULTIPLIER_C0_mult_28_n236
*249 i_DP_i_MULTIPLIER_C0_mult_28_n235
*250 i_DP_i_MULTIPLIER_C0_mult_28_n234
*251 i_DP_i_MULTIPLIER_C0_mult_28_n233
*252 i_DP_i_MULTIPLIER_C0_mult_28_n232
*253 i_DP_i_MULTIPLIER_C0_mult_28_n231
*254 i_DP_i_MULTIPLIER_C0_mult_28_n230
*255 i_DP_i_MULTIPLIER_C0_mult_28_n229
*256 i_DP_i_MULTIPLIER_C0_mult_28_n228
*257 i_DP_i_MULTIPLIER_C0_mult_28_n227
*258 i_DP_i_MULTIPLIER_C0_mult_28_n226
*259 i_DP_i_MULTIPLIER_C0_mult_28_n225
*260 i_DP_i_MULTIPLIER_C0_mult_28_n224
*261 i_DP_i_MULTIPLIER_C0_mult_28_n223
*262 i_DP_i_MULTIPLIER_C0_mult_28_n222
*263 i_DP_i_MULTIPLIER_C0_mult_28_n221
*264 i_DP_i_MULTIPLIER_C0_mult_28_n220
*265 i_DP_i_MULTIPLIER_C0_mult_28_n219
*266 i_DP_i_MULTIPLIER_C0_mult_28_n218
*267 i_DP_i_MULTIPLIER_C0_mult_28_n217
*268 i_DP_i_MULTIPLIER_C0_mult_28_n216
*269 i_DP_i_MULTIPLIER_C0_mult_28_n215
*270 i_DP_i_MULTIPLIER_C0_mult_28_n214
*271 i_DP_i_MULTIPLIER_C0_mult_28_n213
*272 i_DP_i_MULTIPLIER_C0_mult_28_n212
*273 i_DP_i_MULTIPLIER_C0_mult_28_n211
*274 i_DP_i_MULTIPLIER_C0_mult_28_n210
*275 i_DP_i_MULTIPLIER_C0_mult_28_n209
*276 i_DP_i_MULTIPLIER_C0_mult_28_n207
*277 i_DP_i_MULTIPLIER_C0_mult_28_n206
*278 i_DP_i_MULTIPLIER_C0_mult_28_n205
*279 i_DP_i_MULTIPLIER_C0_mult_28_n204
*280 i_DP_i_MULTIPLIER_C0_mult_28_n203
*281 i_DP_i_MULTIPLIER_C0_mult_28_n200
*282 i_DP_i_MULTIPLIER_C0_mult_28_n198
*283 i_DP_i_MULTIPLIER_C0_mult_28_n197
*284 i_DP_i_MULTIPLIER_C0_mult_28_n195
*285 i_DP_i_MULTIPLIER_C0_mult_28_n194
*286 i_DP_i_MULTIPLIER_C0_mult_28_n192
*287 i_DP_i_MULTIPLIER_C0_mult_28_n191
*288 i_DP_i_MULTIPLIER_C0_mult_28_n188
*289 i_DP_i_MULTIPLIER_C0_mult_28_n187
*290 i_DP_i_MULTIPLIER_C0_mult_28_n186
*291 i_DP_i_MULTIPLIER_C0_mult_28_n185
*292 i_DP_i_MULTIPLIER_C0_mult_28_n184
*293 i_DP_i_MULTIPLIER_C0_mult_28_n183
*294 i_DP_i_MULTIPLIER_C0_mult_28_n182
*295 i_DP_i_MULTIPLIER_C0_mult_28_n181
*296 i_DP_i_MULTIPLIER_C0_mult_28_n180
*297 i_DP_i_MULTIPLIER_C0_mult_28_n179
*298 i_DP_i_MULTIPLIER_C0_mult_28_n178
*299 i_DP_i_MULTIPLIER_C0_mult_28_n177
*300 i_DP_i_MULTIPLIER_C0_mult_28_n176
*301 i_DP_i_MULTIPLIER_C0_mult_28_n175
*302 i_DP_i_MULTIPLIER_C0_mult_28_n174
*303 i_DP_i_MULTIPLIER_C0_mult_28_n173
*304 i_DP_i_MULTIPLIER_C0_mult_28_n172
*305 i_DP_i_MULTIPLIER_C0_mult_28_n171
*306 i_DP_i_MULTIPLIER_C0_mult_28_n170
*307 i_DP_i_MULTIPLIER_C0_mult_28_n169
*308 i_DP_i_MULTIPLIER_C0_mult_28_n168
*309 i_DP_i_MULTIPLIER_C0_mult_28_n167
*310 i_DP_i_MULTIPLIER_C0_mult_28_n166
*311 i_DP_i_MULTIPLIER_C0_mult_28_n165
*312 i_DP_i_MULTIPLIER_C0_mult_28_n164
*313 i_DP_i_MULTIPLIER_C0_mult_28_n163
*314 i_DP_i_MULTIPLIER_C0_mult_28_n162
*315 i_DP_i_MULTIPLIER_C0_mult_28_n161
*316 i_DP_i_MULTIPLIER_C0_mult_28_n160
*317 i_DP_i_MULTIPLIER_C0_mult_28_n159
*318 i_DP_i_MULTIPLIER_C0_mult_28_n158
*319 i_DP_i_MULTIPLIER_C0_mult_28_n157
*320 i_DP_i_MULTIPLIER_C0_mult_28_n156
*321 i_DP_i_MULTIPLIER_C0_mult_28_n155
*322 i_DP_i_MULTIPLIER_C0_mult_28_n154
*323 i_DP_i_MULTIPLIER_C0_mult_28_n153
*324 i_DP_i_MULTIPLIER_C0_mult_28_n152
*325 i_DP_i_MULTIPLIER_C0_mult_28_n151
*326 i_DP_i_MULTIPLIER_C0_mult_28_n150
*327 i_DP_i_MULTIPLIER_C0_mult_28_n149
*328 i_DP_i_MULTIPLIER_C0_mult_28_n148
*329 i_DP_i_MULTIPLIER_C0_mult_28_n147
*330 i_DP_i_MULTIPLIER_C0_mult_28_n146
*331 i_DP_i_MULTIPLIER_C0_mult_28_n145
*332 i_DP_i_MULTIPLIER_C0_mult_28_n144
*333 i_DP_i_MULTIPLIER_C0_mult_28_n143
*334 i_DP_i_MULTIPLIER_C0_mult_28_n142
*335 i_DP_i_MULTIPLIER_C0_mult_28_n141
*336 i_DP_i_MULTIPLIER_C0_mult_28_n140
*337 i_DP_i_MULTIPLIER_C0_mult_28_n139
*338 i_DP_i_MULTIPLIER_C0_mult_28_n138
*339 i_DP_i_MULTIPLIER_C0_mult_28_n137
*340 i_DP_i_MULTIPLIER_C0_mult_28_n136
*341 i_DP_i_MULTIPLIER_C0_mult_28_n135
*342 i_DP_i_MULTIPLIER_C0_mult_28_n134
*343 i_DP_i_MULTIPLIER_C0_mult_28_n133
*344 i_DP_i_MULTIPLIER_C0_mult_28_n132
*345 i_DP_i_MULTIPLIER_C0_mult_28_n131
*346 i_DP_i_MULTIPLIER_C0_mult_28_n130
*347 i_DP_i_MULTIPLIER_C0_mult_28_n129
*348 i_DP_i_MULTIPLIER_C0_mult_28_n128
*349 i_DP_i_MULTIPLIER_C0_mult_28_n127
*350 i_DP_i_MULTIPLIER_C0_mult_28_n126
*351 i_DP_i_MULTIPLIER_C0_mult_28_n125
*352 i_DP_i_MULTIPLIER_C0_mult_28_n121
*353 i_DP_i_MULTIPLIER_C0_mult_28_n119
*354 i_DP_i_MULTIPLIER_C0_mult_28_n115
*355 i_DP_i_MULTIPLIER_C0_mult_28_n114
*356 i_DP_i_MULTIPLIER_C0_mult_28_n113
*357 i_DP_i_MULTIPLIER_C0_mult_28_n112
*358 i_DP_i_MULTIPLIER_C0_mult_28_n109
*359 i_DP_i_MULTIPLIER_C0_mult_28_n107
*360 i_DP_i_MULTIPLIER_C0_mult_28_n106
*361 i_DP_i_MULTIPLIER_C0_mult_28_n104
*362 i_DP_i_MULTIPLIER_C0_mult_28_n103
*363 i_DP_i_MULTIPLIER_C0_mult_28_n101
*364 i_DP_i_MULTIPLIER_C0_mult_28_n99
*365 i_DP_i_MULTIPLIER_C0_mult_28_n98
*366 i_DP_i_MULTIPLIER_C0_mult_28_n97
*367 i_DP_i_MULTIPLIER_C0_mult_28_n96
*368 i_DP_i_MULTIPLIER_C0_mult_28_n95
*369 i_DP_i_MULTIPLIER_C0_mult_28_n93
*370 i_DP_i_MULTIPLIER_C0_mult_28_n91
*371 i_DP_i_MULTIPLIER_C0_mult_28_n90
*372 i_DP_i_MULTIPLIER_C0_mult_28_n89
*373 i_DP_i_MULTIPLIER_C0_mult_28_n88
*374 i_DP_i_MULTIPLIER_C0_mult_28_n83
*375 i_DP_i_MULTIPLIER_C0_mult_28_n82
*376 i_DP_i_MULTIPLIER_C0_mult_28_n81
*377 i_DP_i_MULTIPLIER_C0_mult_28_n79
*378 i_DP_i_MULTIPLIER_C0_mult_28_n77
*379 i_DP_i_MULTIPLIER_C0_mult_28_n76
*380 i_DP_i_MULTIPLIER_C0_mult_28_n74
*381 i_DP_i_MULTIPLIER_C0_mult_28_n72
*382 i_DP_i_MULTIPLIER_C0_mult_28_n71
*383 i_DP_i_MULTIPLIER_C0_mult_28_n70
*384 i_DP_i_MULTIPLIER_C0_mult_28_n69
*385 i_DP_i_MULTIPLIER_C0_mult_28_n68
*386 i_DP_i_MULTIPLIER_C0_mult_28_n67
*387 i_DP_i_MULTIPLIER_C0_mult_28_n66
*388 i_DP_i_MULTIPLIER_C0_mult_28_n65
*389 i_DP_i_MULTIPLIER_C0_mult_28_n64
*390 i_DP_i_MULTIPLIER_C0_mult_28_n63
*391 i_DP_i_MULTIPLIER_C0_mult_28_n62
*392 i_DP_i_MULTIPLIER_C0_mult_28_n60
*393 i_DP_i_MULTIPLIER_C0_mult_28_n59
*394 i_DP_i_MULTIPLIER_C0_mult_28_n58
*395 i_DP_i_MULTIPLIER_C0_mult_28_n57
*396 i_DP_i_MULTIPLIER_C0_mult_28_n56
*397 i_DP_i_MULTIPLIER_C0_mult_28_n54
*398 i_DP_i_MULTIPLIER_C0_mult_28_n53
*399 i_DP_i_MULTIPLIER_C0_mult_28_n52
*400 i_DP_i_MULTIPLIER_C0_mult_28_n51
*401 i_DP_i_MULTIPLIER_C0_mult_28_n50
*402 i_DP_i_MULTIPLIER_C0_mult_28_n48
*403 i_DP_i_MULTIPLIER_C0_mult_28_n44
*404 i_DP_i_MULTIPLIER_C0_mult_28_n43
*405 i_DP_i_MULTIPLIER_C0_mult_28_n42
*406 i_DP_i_MULTIPLIER_C0_mult_28_n41
*407 i_DP_i_MULTIPLIER_C0_mult_28_n39
*408 i_DP_i_MULTIPLIER_C0_mult_28_n37
*409 i_DP_i_MULTIPLIER_C0_mult_28_n36
*410 i_DP_i_MULTIPLIER_C0_mult_28_n35
*411 i_DP_i_MULTIPLIER_C0_mult_28_n34
*412 i_DP_i_MULTIPLIER_C0_mult_28_n33
*413 i_DP_i_MULTIPLIER_C0_mult_28_n32
*414 i_DP_i_MULTIPLIER_C0_mult_28_n31
*415 i_DP_i_MULTIPLIER_C0_mult_28_n30
*416 i_DP_i_MULTIPLIER_C0_mult_28_n29
*417 i_DP_i_MULTIPLIER_C0_mult_28_n28
*418 i_DP_i_MULTIPLIER_C0_mult_28_n27
*419 i_DP_i_MULTIPLIER_C0_mult_28_n26
*420 i_DP_i_MULTIPLIER_C0_mult_28_n25
*421 i_DP_i_MULTIPLIER_C0_mult_28_n24
*422 i_DP_i_MULTIPLIER_C0_mult_28_n23
*423 i_DP_i_MULTIPLIER_C0_mult_28_n21
*424 i_DP_i_MULTIPLIER_C0_mult_28_n19
*425 i_DP_i_MULTIPLIER_C0_mult_28_n17
*426 i_DP_i_MULTIPLIER_C0_mult_28_n16
*427 i_DP_i_MULTIPLIER_C0_mult_28_n15
*428 i_DP_i_MULTIPLIER_C0_mult_28_n14
*429 i_DP_i_MULTIPLIER_C0_mult_28_n13
*430 i_DP_i_MULTIPLIER_C0_mult_28_n12
*431 i_DP_i_MULTIPLIER_C0_mult_28_n11
*432 i_DP_i_MULTIPLIER_C0_mult_28_n10
*433 i_DP_i_MULTIPLIER_C0_mult_28_n9
*434 i_DP_i_MULTIPLIER_C0_mult_28_n7
*435 i_DP_i_MULTIPLIER_C0_mult_28_n6
*436 i_DP_i_MULTIPLIER_C0_mult_28_n5
*437 i_DP_i_MULTIPLIER_C0_mult_28_n4
*438 i_DP_i_MULTIPLIER_C0_mult_28_n3
*439 i_DP_i_MULTIPLIER_C0_mult_28_n2
*440 i_DP_i_MULTIPLIER_C0_mult_28_n1
*441 i_DP_i_REG_MUL_C0_n6
*442 i_DP_i_REG_MUL_C0_n5
*443 i_DP_i_REG_MUL_C0_n4
*444 i_DP_i_REG_MUL_C0_n3
*445 i_DP_i_REG_MUL_C0_n2
*446 i_DP_i_REG_MUL_C0_n21
*447 i_DP_i_REG_MUL_C0_n20
*448 i_DP_i_REG_MUL_C0_n19
*449 i_DP_i_REG_MUL_C0_n18
*450 i_DP_i_REG_MUL_C0_n17
*451 i_DP_i_REG_MUL_C0_n16
*452 i_DP_i_REG_MUL_C0_n15
*453 i_DP_i_REG_MUL_C0_n14
*454 i_DP_i_REG_MUL_C0_n13
*455 i_DP_i_REG_MUL_C0_n12
*456 i_DP_i_REG_MUL_C0_n11
*457 i_DP_i_REG_MUL_C0_n10
*458 i_DP_i_REG_MUL_C0_n9
*459 i_DP_i_ADDER_0_N0
*460 i_DP_i_ADDER_0_N1
*461 i_DP_i_ADDER_0_N2
*462 i_DP_i_ADDER_0_N3
*463 i_DP_i_ADDER_0_N4
*464 i_DP_i_ADDER_0_N5
*465 i_DP_i_ADDER_0_N6
*466 i_DP_i_ADDER_0_N7
*467 i_DP_i_ADDER_0_N8
*468 i_DP_i_ADDER_0_N9
*469 i_DP_i_ADDER_0_add_0_root_add_0_root_add_29_2_n111
*470 i_DP_i_ADDER_0_add_0_root_add_0_root_add_29_2_n110
*471 i_DP_i_ADDER_0_add_0_root_add_0_root_add_29_2_n109
*472 i_DP_i_ADDER_0_add_0_root_add_0_root_add_29_2_n108
*473 i_DP_i_ADDER_0_add_0_root_add_0_root_add_29_2_n65
*474 i_DP_i_ADDER_0_add_0_root_add_0_root_add_29_2_n64
*475 i_DP_i_ADDER_0_add_0_root_add_0_root_add_29_2_n63
*476 i_DP_i_ADDER_0_add_0_root_add_0_root_add_29_2_n62
*477 i_DP_i_ADDER_0_add_0_root_add_0_root_add_29_2_n57
*478 i_DP_i_ADDER_0_add_0_root_add_0_root_add_29_2_n54
*479 i_DP_i_ADDER_0_add_0_root_add_0_root_add_29_2_n52
*480 i_DP_i_ADDER_0_add_0_root_add_0_root_add_29_2_n51
*481 i_DP_i_ADDER_0_add_0_root_add_0_root_add_29_2_n50
*482 i_DP_i_ADDER_0_add_0_root_add_0_root_add_29_2_n48
*483 i_DP_i_ADDER_0_add_0_root_add_0_root_add_29_2_n46
*484 i_DP_i_ADDER_0_add_0_root_add_0_root_add_29_2_n45
*485 i_DP_i_ADDER_0_add_0_root_add_0_root_add_29_2_n43
*486 i_DP_i_ADDER_0_add_0_root_add_0_root_add_29_2_n41
*487 i_DP_i_ADDER_0_add_0_root_add_0_root_add_29_2_n40
*488 i_DP_i_ADDER_0_add_0_root_add_0_root_add_29_2_n39
*489 i_DP_i_ADDER_0_add_0_root_add_0_root_add_29_2_n38
*490 i_DP_i_ADDER_0_add_0_root_add_0_root_add_29_2_n37
*491 i_DP_i_ADDER_0_add_0_root_add_0_root_add_29_2_n36
*492 i_DP_i_ADDER_0_add_0_root_add_0_root_add_29_2_n35
*493 i_DP_i_ADDER_0_add_0_root_add_0_root_add_29_2_n34
*494 i_DP_i_ADDER_0_add_0_root_add_0_root_add_29_2_n33
*495 i_DP_i_ADDER_0_add_0_root_add_0_root_add_29_2_n32
*496 i_DP_i_ADDER_0_add_0_root_add_0_root_add_29_2_n31
*497 i_DP_i_ADDER_0_add_0_root_add_0_root_add_29_2_n30
*498 i_DP_i_ADDER_0_add_0_root_add_0_root_add_29_2_n29
*499 i_DP_i_ADDER_0_add_0_root_add_0_root_add_29_2_n28
*500 i_DP_i_ADDER_0_add_0_root_add_0_root_add_29_2_n27
*501 i_DP_i_ADDER_0_add_0_root_add_0_root_add_29_2_n26
*502 i_DP_i_ADDER_0_add_0_root_add_0_root_add_29_2_n25
*503 i_DP_i_ADDER_0_add_0_root_add_0_root_add_29_2_n24
*504 i_DP_i_ADDER_0_add_0_root_add_0_root_add_29_2_n23
*505 i_DP_i_ADDER_0_add_0_root_add_0_root_add_29_2_n22
*506 i_DP_i_ADDER_0_add_0_root_add_0_root_add_29_2_n21
*507 i_DP_i_ADDER_0_add_0_root_add_0_root_add_29_2_n20
*508 i_DP_i_ADDER_0_add_0_root_add_0_root_add_29_2_n18
*509 i_DP_i_ADDER_0_add_0_root_add_0_root_add_29_2_n16
*510 i_DP_i_ADDER_0_add_0_root_add_0_root_add_29_2_n15
*511 i_DP_i_ADDER_0_add_0_root_add_0_root_add_29_2_n14
*512 i_DP_i_ADDER_0_add_0_root_add_0_root_add_29_2_n13
*513 i_DP_i_ADDER_0_add_0_root_add_0_root_add_29_2_n10
*514 i_DP_i_ADDER_0_add_0_root_add_0_root_add_29_2_n9
*515 i_DP_i_ADDER_0_add_0_root_add_0_root_add_29_2_n8
*516 i_DP_i_ADDER_0_add_0_root_add_0_root_add_29_2_n7
*517 i_DP_i_ADDER_0_add_0_root_add_0_root_add_29_2_n6
*518 i_DP_i_ADDER_0_add_0_root_add_0_root_add_29_2_n5
*519 i_DP_i_ADDER_0_add_0_root_add_0_root_add_29_2_n4
*520 i_DP_i_ADDER_0_add_0_root_add_0_root_add_29_2_n3
*521 i_DP_i_ADDER_0_add_0_root_add_0_root_add_29_2_n2
*522 i_DP_i_ADDER_0_add_0_root_add_0_root_add_29_2_n1
*523 i_DP_i_ADDER_0_add_1_root_add_0_root_add_29_2_n110
*524 i_DP_i_ADDER_0_add_1_root_add_0_root_add_29_2_n109
*525 i_DP_i_ADDER_0_add_1_root_add_0_root_add_29_2_n68
*526 i_DP_i_ADDER_0_add_1_root_add_0_root_add_29_2_n67
*527 i_DP_i_ADDER_0_add_1_root_add_0_root_add_29_2_n66
*528 i_DP_i_ADDER_0_add_1_root_add_0_root_add_29_2_n65
*529 i_DP_i_ADDER_0_add_1_root_add_0_root_add_29_2_n64
*530 i_DP_i_ADDER_0_add_1_root_add_0_root_add_29_2_n63
*531 i_DP_i_ADDER_0_add_1_root_add_0_root_add_29_2_n57
*532 i_DP_i_ADDER_0_add_1_root_add_0_root_add_29_2_n56
*533 i_DP_i_ADDER_0_add_1_root_add_0_root_add_29_2_n55
*534 i_DP_i_ADDER_0_add_1_root_add_0_root_add_29_2_n54
*535 i_DP_i_ADDER_0_add_1_root_add_0_root_add_29_2_n53
*536 i_DP_i_ADDER_0_add_1_root_add_0_root_add_29_2_n52
*537 i_DP_i_ADDER_0_add_1_root_add_0_root_add_29_2_n51
*538 i_DP_i_ADDER_0_add_1_root_add_0_root_add_29_2_n50
*539 i_DP_i_ADDER_0_add_1_root_add_0_root_add_29_2_n49
*540 i_DP_i_ADDER_0_add_1_root_add_0_root_add_29_2_n48
*541 i_DP_i_ADDER_0_add_1_root_add_0_root_add_29_2_n47
*542 i_DP_i_ADDER_0_add_1_root_add_0_root_add_29_2_n46
*543 i_DP_i_ADDER_0_add_1_root_add_0_root_add_29_2_n45
*544 i_DP_i_ADDER_0_add_1_root_add_0_root_add_29_2_n44
*545 i_DP_i_ADDER_0_add_1_root_add_0_root_add_29_2_n43
*546 i_DP_i_ADDER_0_add_1_root_add_0_root_add_29_2_n41
*547 i_DP_i_ADDER_0_add_1_root_add_0_root_add_29_2_n40
*548 i_DP_i_ADDER_0_add_1_root_add_0_root_add_29_2_n39
*549 i_DP_i_ADDER_0_add_1_root_add_0_root_add_29_2_n36
*550 i_DP_i_ADDER_0_add_1_root_add_0_root_add_29_2_n35
*551 i_DP_i_ADDER_0_add_1_root_add_0_root_add_29_2_n34
*552 i_DP_i_ADDER_0_add_1_root_add_0_root_add_29_2_n33
*553 i_DP_i_ADDER_0_add_1_root_add_0_root_add_29_2_n32
*554 i_DP_i_ADDER_0_add_1_root_add_0_root_add_29_2_n31
*555 i_DP_i_ADDER_0_add_1_root_add_0_root_add_29_2_n28
*556 i_DP_i_ADDER_0_add_1_root_add_0_root_add_29_2_n27
*557 i_DP_i_ADDER_0_add_1_root_add_0_root_add_29_2_n26
*558 i_DP_i_ADDER_0_add_1_root_add_0_root_add_29_2_n25
*559 i_DP_i_ADDER_0_add_1_root_add_0_root_add_29_2_n24
*560 i_DP_i_ADDER_0_add_1_root_add_0_root_add_29_2_n23
*561 i_DP_i_ADDER_0_add_1_root_add_0_root_add_29_2_n22
*562 i_DP_i_ADDER_0_add_1_root_add_0_root_add_29_2_n21
*563 i_DP_i_ADDER_0_add_1_root_add_0_root_add_29_2_n20
*564 i_DP_i_ADDER_0_add_1_root_add_0_root_add_29_2_n19
*565 i_DP_i_ADDER_0_add_1_root_add_0_root_add_29_2_n18
*566 i_DP_i_ADDER_0_add_1_root_add_0_root_add_29_2_n17
*567 i_DP_i_ADDER_0_add_1_root_add_0_root_add_29_2_n15
*568 i_DP_i_ADDER_0_add_1_root_add_0_root_add_29_2_n13
*569 i_DP_i_ADDER_0_add_1_root_add_0_root_add_29_2_n12
*570 i_DP_i_ADDER_0_add_1_root_add_0_root_add_29_2_n8
*571 i_DP_i_ADDER_0_add_1_root_add_0_root_add_29_2_n7
*572 i_DP_i_ADDER_0_add_1_root_add_0_root_add_29_2_n6
*573 i_DP_i_ADDER_0_add_1_root_add_0_root_add_29_2_n5
*574 i_DP_i_ADDER_0_add_1_root_add_0_root_add_29_2_n4
*575 i_DP_i_ADDER_0_add_1_root_add_0_root_add_29_2_n3
*576 i_DP_i_ADDER_0_add_1_root_add_0_root_add_29_2_n2
*577 i_DP_i_ADDER_0_add_1_root_add_0_root_add_29_2_n1
*578 i_DP_i_REG_DEL_1_n9
*579 i_DP_i_REG_DEL_1_n4
*580 i_DP_i_REG_DEL_1_n30
*581 i_DP_i_REG_DEL_1_n29
*582 i_DP_i_REG_DEL_1_n28
*583 i_DP_i_REG_DEL_1_n27
*584 i_DP_i_REG_DEL_1_n26
*585 i_DP_i_REG_DEL_1_n25
*586 i_DP_i_REG_DEL_1_n24
*587 i_DP_i_REG_DEL_1_n23
*588 i_DP_i_REG_DEL_1_n22
*589 i_DP_i_REG_DEL_1_n21
*590 i_DP_i_REG_DEL_1_n20
*591 i_DP_i_REG_DEL_1_n19
*592 i_DP_i_REG_DEL_1_n18
*593 i_DP_i_REG_DEL_1_n16
*594 i_DP_i_REG_DEL_1_n15
*595 i_DP_i_REG_DEL_1_n14
*596 i_DP_i_REG_DEL_1_n13
*597 i_DP_i_REG_DEL_1_n12
*598 i_DP_i_REG_DEL_1_n11
*599 i_DP_i_REG_DEL_1_n34
*600 i_DP_i_REG_DEL_1_n33
*601 i_DP_i_REG_DEL_1_n32
*602 i_DP_i_REG_DEL_1_n31
*603 i_DP_i_REG_DEL_1_n17
*604 i_DP_i_MULTIPLIER_C1_MULTIPLIER_OUT_P_0_
*605 i_DP_i_MULTIPLIER_C1_MULTIPLIER_OUT_P_1_
*606 i_DP_i_MULTIPLIER_C1_MULTIPLIER_OUT_P_2_
*607 i_DP_i_MULTIPLIER_C1_MULTIPLIER_OUT_P_3_
*608 i_DP_i_MULTIPLIER_C1_MULTIPLIER_OUT_P_4_
*609 i_DP_i_MULTIPLIER_C1_MULTIPLIER_OUT_P_5_
*610 i_DP_i_MULTIPLIER_C1_MULTIPLIER_OUT_P_6_
*611 i_DP_i_MULTIPLIER_C1_MULTIPLIER_OUT_P_7_
*612 i_DP_i_MULTIPLIER_C1_MULTIPLIER_OUT_P_8_
*613 i_DP_i_MULTIPLIER_C1_MULTIPLIER_OUT_P_9_
*614 i_DP_i_MULTIPLIER_C1_MULTIPLIER_OUT_P_17_
*615 i_DP_i_MULTIPLIER_C1_MULTIPLIER_OUT_P_18_
*616 i_DP_i_MULTIPLIER_C1_MULTIPLIER_OUT_P_19_
*617 i_DP_i_MULTIPLIER_C1_mult_28_n520
*618 i_DP_i_MULTIPLIER_C1_mult_28_n518
*619 i_DP_i_MULTIPLIER_C1_mult_28_n517
*620 i_DP_i_MULTIPLIER_C1_mult_28_n510
*621 i_DP_i_MULTIPLIER_C1_mult_28_n509
*622 i_DP_i_MULTIPLIER_C1_mult_28_n508
*623 i_DP_i_MULTIPLIER_C1_mult_28_n507
*624 i_DP_i_MULTIPLIER_C1_mult_28_n506
*625 i_DP_i_MULTIPLIER_C1_mult_28_n504
*626 i_DP_i_MULTIPLIER_C1_mult_28_n499
*627 i_DP_i_MULTIPLIER_C1_mult_28_n498
*628 i_DP_i_MULTIPLIER_C1_mult_28_n496
*629 i_DP_i_MULTIPLIER_C1_mult_28_n495
*630 i_DP_i_MULTIPLIER_C1_mult_28_n494
*631 i_DP_i_MULTIPLIER_C1_mult_28_n493
*632 i_DP_i_MULTIPLIER_C1_mult_28_n492
*633 i_DP_i_MULTIPLIER_C1_mult_28_n491
*634 i_DP_i_MULTIPLIER_C1_mult_28_n490
*635 i_DP_i_MULTIPLIER_C1_mult_28_n489
*636 i_DP_i_MULTIPLIER_C1_mult_28_n488
*637 i_DP_i_MULTIPLIER_C1_mult_28_n485
*638 i_DP_i_MULTIPLIER_C1_mult_28_n484
*639 i_DP_i_MULTIPLIER_C1_mult_28_n483
*640 i_DP_i_MULTIPLIER_C1_mult_28_n481
*641 i_DP_i_MULTIPLIER_C1_mult_28_n480
*642 i_DP_i_MULTIPLIER_C1_mult_28_n478
*643 i_DP_i_MULTIPLIER_C1_mult_28_n477
*644 i_DP_i_MULTIPLIER_C1_mult_28_n476
*645 i_DP_i_MULTIPLIER_C1_mult_28_n472
*646 i_DP_i_MULTIPLIER_C1_mult_28_n471
*647 i_DP_i_MULTIPLIER_C1_mult_28_n468
*648 i_DP_i_MULTIPLIER_C1_mult_28_n467
*649 i_DP_i_MULTIPLIER_C1_mult_28_n466
*650 i_DP_i_MULTIPLIER_C1_mult_28_n465
*651 i_DP_i_MULTIPLIER_C1_mult_28_n460
*652 i_DP_i_MULTIPLIER_C1_mult_28_n459
*653 i_DP_i_MULTIPLIER_C1_mult_28_n452
*654 i_DP_i_MULTIPLIER_C1_mult_28_n445
*655 i_DP_i_MULTIPLIER_C1_mult_28_n441
*656 i_DP_i_MULTIPLIER_C1_mult_28_n440
*657 i_DP_i_MULTIPLIER_C1_mult_28_n439
*658 i_DP_i_MULTIPLIER_C1_mult_28_n438
*659 i_DP_i_MULTIPLIER_C1_mult_28_n437
*660 i_DP_i_MULTIPLIER_C1_mult_28_n435
*661 i_DP_i_MULTIPLIER_C1_mult_28_n434
*662 i_DP_i_MULTIPLIER_C1_mult_28_n433
*663 i_DP_i_MULTIPLIER_C1_mult_28_n430
*664 i_DP_i_MULTIPLIER_C1_mult_28_n429
*665 i_DP_i_MULTIPLIER_C1_mult_28_n361
*666 i_DP_i_MULTIPLIER_C1_mult_28_n360
*667 i_DP_i_MULTIPLIER_C1_mult_28_n359
*668 i_DP_i_MULTIPLIER_C1_mult_28_n358
*669 i_DP_i_MULTIPLIER_C1_mult_28_n357
*670 i_DP_i_MULTIPLIER_C1_mult_28_n356
*671 i_DP_i_MULTIPLIER_C1_mult_28_n355
*672 i_DP_i_MULTIPLIER_C1_mult_28_n354
*673 i_DP_i_MULTIPLIER_C1_mult_28_n353
*674 i_DP_i_MULTIPLIER_C1_mult_28_n337
*675 i_DP_i_MULTIPLIER_C1_mult_28_n336
*676 i_DP_i_MULTIPLIER_C1_mult_28_n335
*677 i_DP_i_MULTIPLIER_C1_mult_28_n334
*678 i_DP_i_MULTIPLIER_C1_mult_28_n333
*679 i_DP_i_MULTIPLIER_C1_mult_28_n332
*680 i_DP_i_MULTIPLIER_C1_mult_28_n331
*681 i_DP_i_MULTIPLIER_C1_mult_28_n330
*682 i_DP_i_MULTIPLIER_C1_mult_28_n329
*683 i_DP_i_MULTIPLIER_C1_mult_28_n328
*684 i_DP_i_MULTIPLIER_C1_mult_28_n327
*685 i_DP_i_MULTIPLIER_C1_mult_28_n326
*686 i_DP_i_MULTIPLIER_C1_mult_28_n325
*687 i_DP_i_MULTIPLIER_C1_mult_28_n324
*688 i_DP_i_MULTIPLIER_C1_mult_28_n323
*689 i_DP_i_MULTIPLIER_C1_mult_28_n322
*690 i_DP_i_MULTIPLIER_C1_mult_28_n321
*691 i_DP_i_MULTIPLIER_C1_mult_28_n320
*692 i_DP_i_MULTIPLIER_C1_mult_28_n319
*693 i_DP_i_MULTIPLIER_C1_mult_28_n318
*694 i_DP_i_MULTIPLIER_C1_mult_28_n317
*695 i_DP_i_MULTIPLIER_C1_mult_28_n316
*696 i_DP_i_MULTIPLIER_C1_mult_28_n315
*697 i_DP_i_MULTIPLIER_C1_mult_28_n314
*698 i_DP_i_MULTIPLIER_C1_mult_28_n313
*699 i_DP_i_MULTIPLIER_C1_mult_28_n312
*700 i_DP_i_MULTIPLIER_C1_mult_28_n311
*701 i_DP_i_MULTIPLIER_C1_mult_28_n310
*702 i_DP_i_MULTIPLIER_C1_mult_28_n309
*703 i_DP_i_MULTIPLIER_C1_mult_28_n308
*704 i_DP_i_MULTIPLIER_C1_mult_28_n307
*705 i_DP_i_MULTIPLIER_C1_mult_28_n306
*706 i_DP_i_MULTIPLIER_C1_mult_28_n305
*707 i_DP_i_MULTIPLIER_C1_mult_28_n304
*708 i_DP_i_MULTIPLIER_C1_mult_28_n303
*709 i_DP_i_MULTIPLIER_C1_mult_28_n302
*710 i_DP_i_MULTIPLIER_C1_mult_28_n301
*711 i_DP_i_MULTIPLIER_C1_mult_28_n300
*712 i_DP_i_MULTIPLIER_C1_mult_28_n299
*713 i_DP_i_MULTIPLIER_C1_mult_28_n298
*714 i_DP_i_MULTIPLIER_C1_mult_28_n297
*715 i_DP_i_MULTIPLIER_C1_mult_28_n296
*716 i_DP_i_MULTIPLIER_C1_mult_28_n295
*717 i_DP_i_MULTIPLIER_C1_mult_28_n294
*718 i_DP_i_MULTIPLIER_C1_mult_28_n293
*719 i_DP_i_MULTIPLIER_C1_mult_28_n292
*720 i_DP_i_MULTIPLIER_C1_mult_28_n291
*721 i_DP_i_MULTIPLIER_C1_mult_28_n290
*722 i_DP_i_MULTIPLIER_C1_mult_28_n289
*723 i_DP_i_MULTIPLIER_C1_mult_28_n288
*724 i_DP_i_MULTIPLIER_C1_mult_28_n287
*725 i_DP_i_MULTIPLIER_C1_mult_28_n286
*726 i_DP_i_MULTIPLIER_C1_mult_28_n285
*727 i_DP_i_MULTIPLIER_C1_mult_28_n284
*728 i_DP_i_MULTIPLIER_C1_mult_28_n283
*729 i_DP_i_MULTIPLIER_C1_mult_28_n282
*730 i_DP_i_MULTIPLIER_C1_mult_28_n281
*731 i_DP_i_MULTIPLIER_C1_mult_28_n280
*732 i_DP_i_MULTIPLIER_C1_mult_28_n279
*733 i_DP_i_MULTIPLIER_C1_mult_28_n278
*734 i_DP_i_MULTIPLIER_C1_mult_28_n277
*735 i_DP_i_MULTIPLIER_C1_mult_28_n276
*736 i_DP_i_MULTIPLIER_C1_mult_28_n275
*737 i_DP_i_MULTIPLIER_C1_mult_28_n274
*738 i_DP_i_MULTIPLIER_C1_mult_28_n273
*739 i_DP_i_MULTIPLIER_C1_mult_28_n272
*740 i_DP_i_MULTIPLIER_C1_mult_28_n271
*741 i_DP_i_MULTIPLIER_C1_mult_28_n270
*742 i_DP_i_MULTIPLIER_C1_mult_28_n269
*743 i_DP_i_MULTIPLIER_C1_mult_28_n268
*744 i_DP_i_MULTIPLIER_C1_mult_28_n267
*745 i_DP_i_MULTIPLIER_C1_mult_28_n266
*746 i_DP_i_MULTIPLIER_C1_mult_28_n265
*747 i_DP_i_MULTIPLIER_C1_mult_28_n264
*748 i_DP_i_MULTIPLIER_C1_mult_28_n263
*749 i_DP_i_MULTIPLIER_C1_mult_28_n262
*750 i_DP_i_MULTIPLIER_C1_mult_28_n261
*751 i_DP_i_MULTIPLIER_C1_mult_28_n260
*752 i_DP_i_MULTIPLIER_C1_mult_28_n259
*753 i_DP_i_MULTIPLIER_C1_mult_28_n258
*754 i_DP_i_MULTIPLIER_C1_mult_28_n257
*755 i_DP_i_MULTIPLIER_C1_mult_28_n256
*756 i_DP_i_MULTIPLIER_C1_mult_28_n255
*757 i_DP_i_MULTIPLIER_C1_mult_28_n254
*758 i_DP_i_MULTIPLIER_C1_mult_28_n253
*759 i_DP_i_MULTIPLIER_C1_mult_28_n252
*760 i_DP_i_MULTIPLIER_C1_mult_28_n251
*761 i_DP_i_MULTIPLIER_C1_mult_28_n250
*762 i_DP_i_MULTIPLIER_C1_mult_28_n249
*763 i_DP_i_MULTIPLIER_C1_mult_28_n248
*764 i_DP_i_MULTIPLIER_C1_mult_28_n247
*765 i_DP_i_MULTIPLIER_C1_mult_28_n246
*766 i_DP_i_MULTIPLIER_C1_mult_28_n245
*767 i_DP_i_MULTIPLIER_C1_mult_28_n244
*768 i_DP_i_MULTIPLIER_C1_mult_28_n243
*769 i_DP_i_MULTIPLIER_C1_mult_28_n242
*770 i_DP_i_MULTIPLIER_C1_mult_28_n241
*771 i_DP_i_MULTIPLIER_C1_mult_28_n240
*772 i_DP_i_MULTIPLIER_C1_mult_28_n239
*773 i_DP_i_MULTIPLIER_C1_mult_28_n238
*774 i_DP_i_MULTIPLIER_C1_mult_28_n236
*775 i_DP_i_MULTIPLIER_C1_mult_28_n235
*776 i_DP_i_MULTIPLIER_C1_mult_28_n234
*777 i_DP_i_MULTIPLIER_C1_mult_28_n233
*778 i_DP_i_MULTIPLIER_C1_mult_28_n232
*779 i_DP_i_MULTIPLIER_C1_mult_28_n231
*780 i_DP_i_MULTIPLIER_C1_mult_28_n230
*781 i_DP_i_MULTIPLIER_C1_mult_28_n229
*782 i_DP_i_MULTIPLIER_C1_mult_28_n228
*783 i_DP_i_MULTIPLIER_C1_mult_28_n225
*784 i_DP_i_MULTIPLIER_C1_mult_28_n223
*785 i_DP_i_MULTIPLIER_C1_mult_28_n222
*786 i_DP_i_MULTIPLIER_C1_mult_28_n220
*787 i_DP_i_MULTIPLIER_C1_mult_28_n219
*788 i_DP_i_MULTIPLIER_C1_mult_28_n217
*789 i_DP_i_MULTIPLIER_C1_mult_28_n216
*790 i_DP_i_MULTIPLIER_C1_mult_28_n213
*791 i_DP_i_MULTIPLIER_C1_mult_28_n212
*792 i_DP_i_MULTIPLIER_C1_mult_28_n211