*SPEF "IEEE 1481-1998"
*DESIGN "IIR"
*DATE "Sat Nov  6 21:42:51 2021"
*VENDOR "Cadence Design Systems, Inc."
*PROGRAM "Innovus"
*VERSION "17.11-s080_1"
*DESIGN_FLOW "COUPLING C" "PIN_CAP NONE" "NAME_SCOPE LOCAL"
*DIVIDER /
*DELIMITER :
*BUS_DELIMITER []
*T_UNIT 1 NS
*C_UNIT 1 PF
*R_UNIT 1 OHM
*L_UNIT 1 HENRY

// MMMC spef file for corner 'my_rc'

*NAME_MAP

*1 DIN[8]
*2 DIN[7]
*3 DIN[6]
*4 DIN[5]
*5 DIN[4]
*6 DIN[3]
*7 DIN[2]
*8 DIN[1]
*9 DIN[0]
*10 A1[8]
*11 A1[7]
*12 A1[6]
*13 A1[5]
*14 A1[4]
*15 A1[3]
*16 A1[2]
*17 A1[1]
*18 A1[0]
*19 A2[8]
*20 A2[7]
*21 A2[6]
*22 A2[5]
*23 A2[4]
*24 A2[3]
*25 A2[2]
*26 A2[1]
*27 A2[0]
*28 B0[8]
*29 B0[7]
*30 B0[6]
*31 B0[5]
*32 B0[4]
*33 B0[3]
*34 B0[2]
*35 B0[1]
*36 B0[0]
*37 B1[8]
*38 B1[7]
*39 B1[6]
*40 B1[5]
*41 B1[4]
*42 B1[3]
*43 B1[2]
*44 B1[1]
*45 B1[0]
*46 B2[8]
*47 B2[7]
*48 B2[6]
*49 B2[5]
*50 B2[4]
*51 B2[3]
*52 B2[2]
*53 B2[1]
*54 B2[0]
*55 VIN
*56 CLK
*57 RST_N
*58 DOUT[8]
*59 DOUT[7]
*60 DOUT[6]
*61 DOUT[5]
*62 DOUT[4]
*63 DOUT[3]
*64 DOUT[2]
*65 DOUT[1]
*66 DOUT[0]
*67 VOUT
*68 FE_OFN12_i_DP_i_MULTIPLIER_B1_mult_28_n353
*69 FE_OFN11_i_DP_i_MULTIPLIER_A1_mult_28_n365
*70 FE_OFN10_i_DP_i_MULTIPLIER_B2_mult_28_n351
*71 FE_OFN9_i_DP_i_MULTIPLIER_B1_mult_28_n358
*72 FE_OFN8_i_DP_i_MULTIPLIER_A1_mult_28_n366
*73 FE_OFN7_RST_N
*74 FE_OFN6_RST_N
*75 FE_OFN5_i_DP_W_DELAY_2_5
*76 FE_OFN4_i_DP_W_DELAY_1_5
*77 FE_OFN3_i_DP_i_MULTIPLIER_B1_mult_28_n345
*78 FE_OFN2_i_DP_i_MULTIPLIER_A2_mult_28_n511
*79 FE_OFN1_i_DP_i_MULTIPLIER_B2_mult_28_n343
*80 FE_OFN0_i_DP_i_MULTIPLIER_A2_mult_28_n490
*81 FE_DBTN5_i_DP_i_MULTIPLIER_A1_mult_28_n500
*82 FE_DBTN4_i_DP_W_DELAY_1_0
*83 FE_DBTN3_i_DP_W_DELAY_1_5
*84 FE_DBTN1_i_DP_W_DELAY_2_5
*85 FE_DBTN0_i_DP_W_DELAY_2_0
*86 VIN_FROM_REGIN
*87 i_input_register_DIN_n28
*88 i_input_register_DIN_n9
*89 i_input_register_DIN_n8
*90 i_input_register_DIN_n6
*91 i_input_register_DIN_n5
*92 i_input_register_DIN_n4
*93 i_input_register_DIN_n3
*94 i_input_register_DIN_n27
*95 i_input_register_DIN_n26
*96 i_input_register_DIN_n25
*97 i_input_register_DIN_n24
*98 i_input_register_DIN_n23
*99 i_input_register_DIN_n22
*100 i_input_register_DIN_n21
*101 i_input_register_DIN_n20
*102 i_input_register_DIN_n19
*103 i_input_register_DIN_n18
*104 i_input_register_DIN_n17
*105 i_input_register_DIN_n16
*106 i_input_register_DIN_n15
*107 i_input_register_DIN_n14
*108 i_input_register_DIN_n13
*109 i_input_register_DIN_n12
*110 i_input_register_DIN_n11
*111 i_input_register_DIN_n10
*112 i_input_register_DIN_n7
*113 i_input_register_DIN_n2
*114 i_two_complement_A1_n9
*115 i_two_complement_A1_n8
*116 i_two_complement_A1_n7
*117 i_two_complement_A1_n6
*118 i_two_complement_A1_n5
*119 i_two_complement_A1_n4
*120 i_two_complement_A1_n3
*121 i_two_complement_A1_n2
*122 i_two_complement_A2_n9
*123 i_two_complement_A2_n8
*124 i_two_complement_A2_n7
*125 i_two_complement_A2_n6
*126 i_two_complement_A2_n5
*127 i_two_complement_A2_n4
*128 i_two_complement_A2_n3
*129 i_two_complement_A2_n2
*130 i_DP_i_ADDER_0_n3
*131 i_DP_i_ADDER_0_add_28_n108
*132 i_DP_i_ADDER_0_add_28_n107
*133 i_DP_i_ADDER_0_add_28_n105
*134 i_DP_i_ADDER_0_add_28_n104
*135 i_DP_i_ADDER_0_add_28_n102
*136 i_DP_i_ADDER_0_add_28_n101
*137 i_DP_i_ADDER_0_add_28_n99
*138 i_DP_i_ADDER_0_add_28_n98
*139 i_DP_i_ADDER_0_add_28_n96
*140 i_DP_i_ADDER_0_add_28_n95
*141 i_DP_i_ADDER_0_add_28_n94
*142 i_DP_i_ADDER_0_add_28_n92
*143 i_DP_i_ADDER_0_add_28_n54
*144 i_DP_i_ADDER_0_add_28_n52
*145 i_DP_i_ADDER_0_add_28_n51
*146 i_DP_i_ADDER_0_add_28_n44
*147 i_DP_i_ADDER_0_add_28_n43
*148 i_DP_i_ADDER_0_add_28_n42
*149 i_DP_i_ADDER_0_add_28_n41
*150 i_DP_i_ADDER_0_add_28_n40
*151 i_DP_i_ADDER_0_add_28_n39
*152 i_DP_i_ADDER_0_add_28_n35
*153 i_DP_i_ADDER_0_add_28_n34
*154 i_DP_i_ADDER_0_add_28_n33
*155 i_DP_i_ADDER_0_add_28_n30
*156 i_DP_i_ADDER_0_add_28_n29
*157 i_DP_i_ADDER_0_add_28_n28
*158 i_DP_i_ADDER_0_add_28_n27
*159 i_DP_i_ADDER_0_add_28_n26
*160 i_DP_i_ADDER_0_add_28_n25
*161 i_DP_i_ADDER_0_add_28_n24
*162 i_DP_i_ADDER_0_add_28_n23
*163 i_DP_i_ADDER_0_add_28_n21
*164 i_DP_i_ADDER_0_add_28_n20
*165 i_DP_i_ADDER_0_add_28_n19
*166 i_DP_i_ADDER_0_add_28_n18
*167 i_DP_i_ADDER_0_add_28_n16
*168 i_DP_i_ADDER_0_add_28_n14
*169 i_DP_i_ADDER_0_add_28_n13
*170 i_DP_i_ADDER_0_add_28_n11
*171 i_DP_i_ADDER_0_add_28_n10
*172 i_DP_i_ADDER_0_add_28_n9
*173 i_DP_i_ADDER_0_add_28_n8
*174 i_DP_i_ADDER_0_add_28_n7
*175 i_DP_i_ADDER_0_add_28_n6
*176 i_DP_i_ADDER_0_add_28_n4
*177 i_DP_i_ADDER_0_add_28_n3
*178 i_DP_i_ADDER_0_add_28_n2
*179 i_DP_i_reg_0_n9
*180 i_DP_i_reg_0_n8
*181 i_DP_i_reg_0_n4
*182 i_DP_i_reg_0_n3
*183 i_DP_i_reg_0_n2
*184 i_DP_i_reg_0_n1
*185 i_DP_i_reg_0_n30
*186 i_DP_i_reg_0_n29
*187 i_DP_i_reg_0_n28
*188 i_DP_i_reg_0_n27
*189 i_DP_i_reg_0_n26
*190 i_DP_i_reg_0_n25
*191 i_DP_i_reg_0_n24
*192 i_DP_i_reg_0_n23
*193 i_DP_i_reg_0_n22
*194 i_DP_i_reg_0_n21
*195 i_DP_i_reg_0_n20
*196 i_DP_i_reg_0_n19
*197 i_DP_i_reg_0_n18
*198 i_DP_i_reg_0_n17
*199 i_DP_i_reg_0_n16
*200 i_DP_i_reg_0_n15
*201 i_DP_i_reg_0_n14
*202 i_DP_i_reg_0_n13
*203 i_DP_i_reg_0_n12
*204 i_DP_i_reg_0_n11
*205 i_DP_i_reg_0_n37
*206 i_DP_i_reg_0_n36
*207 i_DP_i_reg_0_n35
*208 i_DP_i_reg_0_n34
*209 i_DP_i_reg_1_n52
*210 i_DP_i_reg_1_n51
*211 i_DP_i_reg_1_n50
*212 i_DP_i_reg_1_n49
*213 i_DP_i_reg_1_n48
*214 i_DP_i_reg_1_n47
*215 i_DP_i_reg_1_n46
*216 i_DP_i_reg_1_n45
*217 i_DP_i_reg_1_n44
*218 i_DP_i_reg_1_n43
*219 i_DP_i_reg_1_n42
*220 i_DP_i_reg_1_n41
*221 i_DP_i_reg_1_n40
*222 i_DP_i_reg_1_n39
*223 i_DP_i_reg_1_n38
*224 i_DP_i_reg_1_n37
*225 i_DP_i_reg_1_n36
*226 i_DP_i_reg_1_n35
*227 i_DP_i_reg_1_n34
*228 i_DP_i_reg_1_n33
*229 i_DP_i_reg_1_n8
*230 i_DP_i_reg_1_n5
*231 i_DP_i_reg_1_n3
*232 i_DP_i_reg_1_n2
*233 i_DP_i_reg_1_n1
*234 i_DP_i_reg_1_n55
*235 i_DP_i_reg_1_n54
*236 i_DP_i_reg_1_n53
*237 i_DP_i_MULTIPLIER_A1_MULTIPLIER_OUT_P_0_
*238 i_DP_i_MULTIPLIER_A1_MULTIPLIER_OUT_P_1_
*239 i_DP_i_MULTIPLIER_A1_MULTIPLIER_OUT_P_2_
*240 i_DP_i_MULTIPLIER_A1_MULTIPLIER_OUT_P_3_
*241 i_DP_i_MULTIPLIER_A1_MULTIPLIER_OUT_P_4_
*242 i_DP_i_MULTIPLIER_A1_MULTIPLIER_OUT_P_5_
*243 i_DP_i_MULTIPLIER_A1_MULTIPLIER_OUT_P_6_
*244 i_DP_i_MULTIPLIER_A1_MULTIPLIER_OUT_P_7_
*245 i_DP_i_MULTIPLIER_A1_MULTIPLIER_OUT_P_8_
*246 i_DP_i_MULTIPLIER_A1_MULTIPLIER_OUT_P_9_
*247 i_DP_i_MULTIPLIER_A1_MULTIPLIER_OUT_P_18_
*248 i_DP_i_MULTIPLIER_A1_MULTIPLIER_OUT_P_19_
*249 i_DP_i_MULTIPLIER_A1_mult_28_n517
*250 i_DP_i_MULTIPLIER_A1_mult_28_n516
*251 i_DP_i_MULTIPLIER_A1_mult_28_n515
*252 i_DP_i_MULTIPLIER_A1_mult_28_n500
*253 i_DP_i_MULTIPLIER_A1_mult_28_n499
*254 i_DP_i_MULTIPLIER_A1_mult_28_n498
*255 i_DP_i_MULTIPLIER_A1_mult_28_n497
*256 i_DP_i_MULTIPLIER_A1_mult_28_n496
*257 i_DP_i_MULTIPLIER_A1_mult_28_n495
*258 i_DP_i_MULTIPLIER_A1_mult_28_n494
*259 i_DP_i_MULTIPLIER_A1_mult_28_n493
*260 i_DP_i_MULTIPLIER_A1_mult_28_n492
*261 i_DP_i_MULTIPLIER_A1_mult_28_n491
*262 i_DP_i_MULTIPLIER_A1_mult_28_n490
*263 i_DP_i_MULTIPLIER_A1_mult_28_n489
*264 i_DP_i_MULTIPLIER_A1_mult_28_n488
*265 i_DP_i_MULTIPLIER_A1_mult_28_n487
*266 i_DP_i_MULTIPLIER_A1_mult_28_n486
*267 i_DP_i_MULTIPLIER_A1_mult_28_n485
*268 i_DP_i_MULTIPLIER_A1_mult_28_n483
*269 i_DP_i_MULTIPLIER_A1_mult_28_n482
*270 i_DP_i_MULTIPLIER_A1_mult_28_n481
*271 i_DP_i_MULTIPLIER_A1_mult_28_n480
*272 i_DP_i_MULTIPLIER_A1_mult_28_n478
*273 i_DP_i_MULTIPLIER_A1_mult_28_n477
*274 i_DP_i_MULTIPLIER_A1_mult_28_n476
*275 i_DP_i_MULTIPLIER_A1_mult_28_n475
*276 i_DP_i_MULTIPLIER_A1_mult_28_n474
*277 i_DP_i_MULTIPLIER_A1_mult_28_n473
*278 i_DP_i_MULTIPLIER_A1_mult_28_n472
*279 i_DP_i_MULTIPLIER_A1_mult_28_n471
*280 i_DP_i_MULTIPLIER_A1_mult_28_n470
*281 i_DP_i_MULTIPLIER_A1_mult_28_n468
*282 i_DP_i_MULTIPLIER_A1_mult_28_n467
*283 i_DP_i_MULTIPLIER_A1_mult_28_n466
*284 i_DP_i_MULTIPLIER_A1_mult_28_n465
*285 i_DP_i_MULTIPLIER_A1_mult_28_n458
*286 i_DP_i_MULTIPLIER_A1_mult_28_n457
*287 i_DP_i_MULTIPLIER_A1_mult_28_n453
*288 i_DP_i_MULTIPLIER_A1_mult_28_n451
*289 i_DP_i_MULTIPLIER_A1_mult_28_n445
*290 i_DP_i_MULTIPLIER_A1_mult_28_n438
*291 i_DP_i_MULTIPLIER_A1_mult_28_n436
*292 i_DP_i_MULTIPLIER_A1_mult_28_n435
*293 i_DP_i_MULTIPLIER_A1_mult_28_n434
*294 i_DP_i_MULTIPLIER_A1_mult_28_n433
*295 i_DP_i_MULTIPLIER_A1_mult_28_n366
*296 i_DP_i_MULTIPLIER_A1_mult_28_n365
*297 i_DP_i_MULTIPLIER_A1_mult_28_n363
*298 i_DP_i_MULTIPLIER_A1_mult_28_n362
*299 i_DP_i_MULTIPLIER_A1_mult_28_n361
*300 i_DP_i_MULTIPLIER_A1_mult_28_n360
*301 i_DP_i_MULTIPLIER_A1_mult_28_n356
*302 i_DP_i_MULTIPLIER_A1_mult_28_n355
*303 i_DP_i_MULTIPLIER_A1_mult_28_n354
*304 i_DP_i_MULTIPLIER_A1_mult_28_n343
*305 i_DP_i_MULTIPLIER_A1_mult_28_n342
*306 i_DP_i_MULTIPLIER_A1_mult_28_n341
*307 i_DP_i_MULTIPLIER_A1_mult_28_n340
*308 i_DP_i_MULTIPLIER_A1_mult_28_n339
*309 i_DP_i_MULTIPLIER_A1_mult_28_n338
*310 i_DP_i_MULTIPLIER_A1_mult_28_n337
*311 i_DP_i_MULTIPLIER_A1_mult_28_n336
*312 i_DP_i_MULTIPLIER_A1_mult_28_n335
*313 i_DP_i_MULTIPLIER_A1_mult_28_n334
*314 i_DP_i_MULTIPLIER_A1_mult_28_n333
*315 i_DP_i_MULTIPLIER_A1_mult_28_n332
*316 i_DP_i_MULTIPLIER_A1_mult_28_n331
*317 i_DP_i_MULTIPLIER_A1_mult_28_n330
*318 i_DP_i_MULTIPLIER_A1_mult_28_n329
*319 i_DP_i_MULTIPLIER_A1_mult_28_n328
*320 i_DP_i_MULTIPLIER_A1_mult_28_n327
*321 i_DP_i_MULTIPLIER_A1_mult_28_n326
*322 i_DP_i_MULTIPLIER_A1_mult_28_n325
*323 i_DP_i_MULTIPLIER_A1_mult_28_n324
*324 i_DP_i_MULTIPLIER_A1_mult_28_n323
*325 i_DP_i_MULTIPLIER_A1_mult_28_n322
*326 i_DP_i_MULTIPLIER_A1_mult_28_n321
*327 i_DP_i_MULTIPLIER_A1_mult_28_n320
*328 i_DP_i_MULTIPLIER_A1_mult_28_n319
*329 i_DP_i_MULTIPLIER_A1_mult_28_n318
*330 i_DP_i_MULTIPLIER_A1_mult_28_n317
*331 i_DP_i_MULTIPLIER_A1_mult_28_n316
*332 i_DP_i_MULTIPLIER_A1_mult_28_n315
*333 i_DP_i_MULTIPLIER_A1_mult_28_n314
*334 i_DP_i_MULTIPLIER_A1_mult_28_n313
*335 i_DP_i_MULTIPLIER_A1_mult_28_n312
*336 i_DP_i_MULTIPLIER_A1_mult_28_n311
*337 i_DP_i_MULTIPLIER_A1_mult_28_n310
*338 i_DP_i_MULTIPLIER_A1_mult_28_n309
*339 i_DP_i_MULTIPLIER_A1_mult_28_n308
*340 i_DP_i_MULTIPLIER_A1_mult_28_n307
*341 i_DP_i_MULTIPLIER_A1_mult_28_n306
*342 i_DP_i_MULTIPLIER_A1_mult_28_n305
*343 i_DP_i_MULTIPLIER_A1_mult_28_n304
*344 i_DP_i_MULTIPLIER_A1_mult_28_n303
*345 i_DP_i_MULTIPLIER_A1_mult_28_n302
*346 i_DP_i_MULTIPLIER_A1_mult_28_n301
*347 i_DP_i_MULTIPLIER_A1_mult_28_n300
*348 i_DP_i_MULTIPLIER_A1_mult_28_n299
*349 i_DP_i_MULTIPLIER_A1_mult_28_n298
*350 i_DP_i_MULTIPLIER_A1_mult_28_n297
*351 i_DP_i_MULTIPLIER_A1_mult_28_n296
*352 i_DP_i_MULTIPLIER_A1_mult_28_n295
*353 i_DP_i_MULTIPLIER_A1_mult_28_n294
*354 i_DP_i_MULTIPLIER_A1_mult_28_n293
*355 i_DP_i_MULTIPLIER_A1_mult_28_n292
*356 i_DP_i_MULTIPLIER_A1_mult_28_n291
*357 i_DP_i_MULTIPLIER_A1_mult_28_n290
*358 i_DP_i_MULTIPLIER_A1_mult_28_n289
*359 i_DP_i_MULTIPLIER_A1_mult_28_n288
*360 i_DP_i_MULTIPLIER_A1_mult_28_n287
*361 i_DP_i_MULTIPLIER_A1_mult_28_n286
*362 i_DP_i_MULTIPLIER_A1_mult_28_n285
*363 i_DP_i_MULTIPLIER_A1_mult_28_n284
*364 i_DP_i_MULTIPLIER_A1_mult_28_n283
*365 i_DP_i_MULTIPLIER_A1_mult_28_n282
*366 i_DP_i_MULTIPLIER_A1_mult_28_n281
*367 i_DP_i_MULTIPLIER_A1_mult_28_n280
*368 i_DP_i_MULTIPLIER_A1_mult_28_n279
*369 i_DP_i_MULTIPLIER_A1_mult_28_n278
*370 i_DP_i_MULTIPLIER_A1_mult_28_n277
*371 i_DP_i_MULTIPLIER_A1_mult_28_n276
*372 i_DP_i_MULTIPLIER_A1_mult_28_n275
*373 i_DP_i_MULTIPLIER_A1_mult_28_n274
*374 i_DP_i_MULTIPLIER_A1_mult_28_n273
*375 i_DP_i_MULTIPLIER_A1_mult_28_n272
*376 i_DP_i_MULTIPLIER_A1_mult_28_n271
*377 i_DP_i_MULTIPLIER_A1_mult_28_n270
*378 i_DP_i_MULTIPLIER_A1_mult_28_n269
*379 i_DP_i_MULTIPLIER_A1_mult_28_n268
*380 i_DP_i_MULTIPLIER_A1_mult_28_n267
*381 i_DP_i_MULTIPLIER_A1_mult_28_n266
*382 i_DP_i_MULTIPLIER_A1_mult_28_n265
*383 i_DP_i_MULTIPLIER_A1_mult_28_n264
*384 i_DP_i_MULTIPLIER_A1_mult_28_n263
*385 i_DP_i_MULTIPLIER_A1_mult_28_n262
*386 i_DP_i_MULTIPLIER_A1_mult_28_n261
*387 i_DP_i_MULTIPLIER_A1_mult_28_n260
*388 i_DP_i_MULTIPLIER_A1_mult_28_n259
*389 i_DP_i_MULTIPLIER_A1_mult_28_n258
*390 i_DP_i_MULTIPLIER_A1_mult_28_n257
*391 i_DP_i_MULTIPLIER_A1_mult_28_n256
*392 i_DP_i_MULTIPLIER_A1_mult_28_n255
*393 i_DP_i_MULTIPLIER_A1_mult_28_n254
*394 i_DP_i_MULTIPLIER_A1_mult_28_n253
*395 i_DP_i_MULTIPLIER_A1_mult_28_n252
*396 i_DP_i_MULTIPLIER_A1_mult_28_n251
*397 i_DP_i_MULTIPLIER_A1_mult_28_n250
*398 i_DP_i_MULTIPLIER_A1_mult_28_n249
*399 i_DP_i_MULTIPLIER_A1_mult_28_n248
*400 i_DP_i_MULTIPLIER_A1_mult_28_n247
*401 i_DP_i_MULTIPLIER_A1_mult_28_n246
*402 i_DP_i_MULTIPLIER_A1_mult_28_n245
*403 i_DP_i_MULTIPLIER_A1_mult_28_n244
*404 i_DP_i_MULTIPLIER_A1_mult_28_n243
*405 i_DP_i_MULTIPLIER_A1_mult_28_n242
*406 i_DP_i_MULTIPLIER_A1_mult_28_n241
*407 i_DP_i_MULTIPLIER_A1_mult_28_n240
*408 i_DP_i_MULTIPLIER_A1_mult_28_n239
*409 i_DP_i_MULTIPLIER_A1_mult_28_n238
*410 i_DP_i_MULTIPLIER_A1_mult_28_n237
*411 i_DP_i_MULTIPLIER_A1_mult_28_n236
*412 i_DP_i_MULTIPLIER_A1_mult_28_n235
*413 i_DP_i_MULTIPLIER_A1_mult_28_n234
*414 i_DP_i_MULTIPLIER_A1_mult_28_n231
*415 i_DP_i_MULTIPLIER_A1_mult_28_n228
*416 i_DP_i_MULTIPLIER_A1_mult_28_n226
*417 i_DP_i_MULTIPLIER_A1_mult_28_n225
*418 i_DP_i_MULTIPLIER_A1_mult_28_n223
*419 i_DP_i_MULTIPLIER_A1_mult_28_n222
*420 i_DP_i_MULTIPLIER_A1_mult_28_n219
*421 i_DP_i_MULTIPLIER_A1_mult_28_n218
*422 i_DP_i_MULTIPLIER_A1_mult_28_n217
*423 i_DP_i_MULTIPLIER_A1_mult_28_n216
*424 i_DP_i_MULTIPLIER_A1_mult_28_n215
*425 i_DP_i_MULTIPLIER_A1_mult_28_n214
*426 i_DP_i_MULTIPLIER_A1_mult_28_n213
*427 i_DP_i_MULTIPLIER_A1_mult_28_n212
*428 i_DP_i_MULTIPLIER_A1_mult_28_n211
*429 i_DP_i_MULTIPLIER_A1_mult_28_n210
*430 i_DP_i_MULTIPLIER_A1_mult_28_n209
*431 i_DP_i_MULTIPLIER_A1_mult_28_n208
*432 i_DP_i_MULTIPLIER_A1_mult_28_n207
*433 i_DP_i_MULTIPLIER_A1_mult_28_n206
*434 i_DP_i_MULTIPLIER_A1_mult_28_n205
*435 i_DP_i_MULTIPLIER_A1_mult_28_n204
*436 i_DP_i_MULTIPLIER_A1_mult_28_n203
*437 i_DP_i_MULTIPLIER_A1_mult_28_n202
*438 i_DP_i_MULTIPLIER_A1_mult_28_n201
*439 i_DP_i_MULTIPLIER_A1_mult_28_n200
*440 i_DP_i_MULTIPLIER_A1_mult_28_n199
*441 i_DP_i_MULTIPLIER_A1_mult_28_n198
*442 i_DP_i_MULTIPLIER_A1_mult_28_n197
*443 i_DP_i_MULTIPLIER_A1_mult_28_n196
*444 i_DP_i_MULTIPLIER_A1_mult_28_n195
*445 i_DP_i_MULTIPLIER_A1_mult_28_n194
*446 i_DP_i_MULTIPLIER_A1_mult_28_n193
*447 i_DP_i_MULTIPLIER_A1_mult_28_n192
*448 i_DP_i_MULTIPLIER_A1_mult_28_n191
*449 i_DP_i_MULTIPLIER_A1_mult_28_n190
*450 i_DP_i_MULTIPLIER_A1_mult_28_n189
*451 i_DP_i_MULTIPLIER_A1_mult_28_n188
*452 i_DP_i_MULTIPLIER_A1_mult_28_n187
*453 i_DP_i_MULTIPLIER_A1_mult_28_n186
*454 i_DP_i_MULTIPLIER_A1_mult_28_n185
*455 i_DP_i_MULTIPLIER_A1_mult_28_n184
*456 i_DP_i_MULTIPLIER_A1_mult_28_n183
*457 i_DP_i_MULTIPLIER_A1_mult_28_n182
*458 i_DP_i_MULTIPLIER_A1_mult_28_n181
*459 i_DP_i_MULTIPLIER_A1_mult_28_n180
*460 i_DP_i_MULTIPLIER_A1_mult_28_n179
*461 i_DP_i_MULTIPLIER_A1_mult_28_n178
*462 i_DP_i_MULTIPLIER_A1_mult_28_n177
*463 i_DP_i_MULTIPLIER_A1_mult_28_n176
*464 i_DP_i_MULTIPLIER_A1_mult_28_n175
*465 i_DP_i_MULTIPLIER_A1_mult_28_n174
*466 i_DP_i_MULTIPLIER_A1_mult_28_n173
*467 i_DP_i_MULTIPLIER_A1_mult_28_n172
*468 i_DP_i_MULTIPLIER_A1_mult_28_n171
*469 i_DP_i_MULTIPLIER_A1_mult_28_n170
*470 i_DP_i_MULTIPLIER_A1_mult_28_n169
*471 i_DP_i_MULTIPLIER_A1_mult_28_n168
*472 i_DP_i_MULTIPLIER_A1_mult_28_n167
*473 i_DP_i_MULTIPLIER_A1_mult_28_n166
*474 i_DP_i_MULTIPLIER_A1_mult_28_n165
*475 i_DP_i_MULTIPLIER_A1_mult_28_n164
*476 i_DP_i_MULTIPLIER_A1_mult_28_n163
*477 i_DP_i_MULTIPLIER_A1_mult_28_n162
*478 i_DP_i_MULTIPLIER_A1_mult_28_n161
*479 i_DP_i_MULTIPLIER_A1_mult_28_n160
*480 i_DP_i_MULTIPLIER_A1_mult_28_n159
*481 i_DP_i_MULTIPLIER_A1_mult_28_n158
*482 i_DP_i_MULTIPLIER_A1_mult_28_n157
*483 i_DP_i_MULTIPLIER_A1_mult_28_n156
*484 i_DP_i_MULTIPLIER_A1_mult_28_n155
*485 i_DP_i_MULTIPLIER_A1_mult_28_n154
*486 i_DP_i_MULTIPLIER_A1_mult_28_n153
*487 i_DP_i_MULTIPLIER_A1_mult_28_n152
*488 i_DP_i_MULTIPLIER_A1_mult_28_n151
*489 i_DP_i_MULTIPLIER_A1_mult_28_n150
*490 i_DP_i_MULTIPLIER_A1_mult_28_n149
*491 i_DP_i_MULTIPLIER_A1_mult_28_n148
*492 i_DP_i_MULTIPLIER_A1_mult_28_n147
*493 i_DP_i_MULTIPLIER_A1_mult_28_n145
*494 i_DP_i_MULTIPLIER_A1_mult_28_n142
*495 i_DP_i_MULTIPLIER_A1_mult_28_n138
*496 i_DP_i_MULTIPLIER_A1_mult_28_n137
*497 i_DP_i_MULTIPLIER_A1_mult_28_n135
*498 i_DP_i_MULTIPLIER_A1_mult_28_n132
*499 i_DP_i_MULTIPLIER_A1_mult_28_n131
*500 i_DP_i_MULTIPLIER_A1_mult_28_n129
*501 i_DP_i_MULTIPLIER_A1_mult_28_n128
*502 i_DP_i_MULTIPLIER_A1_mult_28_n126
*503 i_DP_i_MULTIPLIER_A1_mult_28_n125
*504 i_DP_i_MULTIPLIER_A1_mult_28_n124
*505 i_DP_i_MULTIPLIER_A1_mult_28_n123
*506 i_DP_i_MULTIPLIER_A1_mult_28_n119
*507 i_DP_i_MULTIPLIER_A1_mult_28_n118
*508 i_DP_i_MULTIPLIER_A1_mult_28_n117
*509 i_DP_i_MULTIPLIER_A1_mult_28_n115
*510 i_DP_i_MULTIPLIER_A1_mult_28_n113
*511 i_DP_i_MULTIPLIER_A1_mult_28_n112
*512 i_DP_i_MULTIPLIER_A1_mult_28_n111
*513 i_DP_i_MULTIPLIER_A1_mult_28_n110
*514 i_DP_i_MULTIPLIER_A1_mult_28_n109
*515 i_DP_i_MULTIPLIER_A1_mult_28_n107
*516 i_DP_i_MULTIPLIER_A1_mult_28_n105
*517 i_DP_i_MULTIPLIER_A1_mult_28_n104
*518 i_DP_i_MULTIPLIER_A1_mult_28_n103
*519 i_DP_i_MULTIPLIER_A1_mult_28_n101
*520 i_DP_i_MULTIPLIER_A1_mult_28_n99
*521 i_DP_i_MULTIPLIER_A1_mult_28_n98
*522 i_DP_i_MULTIPLIER_A1_mult_28_n94
*523 i_DP_i_MULTIPLIER_A1_mult_28_n93
*524 i_DP_i_MULTIPLIER_A1_mult_28_n92
*525 i_DP_i_MULTIPLIER_A1_mult_28_n91
*526 i_DP_i_MULTIPLIER_A1_mult_28_n90
*527 i_DP_i_MULTIPLIER_A1_mult_28_n89
*528 i_DP_i_MULTIPLIER_A1_mult_28_n88
*529 i_DP_i_MULTIPLIER_A1_mult_28_n87
*530 i_DP_i_MULTIPLIER_A1_mult_28_n86
*531 i_DP_i_MULTIPLIER_A1_mult_28_n85
*532 i_DP_i_MULTIPLIER_A1_mult_28_n84
*533 i_DP_i_MULTIPLIER_A1_mult_28_n83
*534 i_DP_i_MULTIPLIER_A1_mult_28_n82
*535 i_DP_i_MULTIPLIER_A1_mult_28_n81
*536 i_DP_i_MULTIPLIER_A1_mult_28_n80
*537 i_DP_i_MULTIPLIER_A1_mult_28_n78
*538 i_DP_i_MULTIPLIER_A1_mult_28_n77
*539 i_DP_i_MULTIPLIER_A1_mult_28_n76
*540 i_DP_i_MULTIPLIER_A1_mult_28_n75
*541 i_DP_i_MULTIPLIER_A1_mult_28_n72
*542 i_DP_i_MULTIPLIER_A1_mult_28_n71
*543 i_DP_i_MULTIPLIER_A1_mult_28_n70
*544 i_DP_i_MULTIPLIER_A1_mult_28_n69
*545 i_DP_i_MULTIPLIER_A1_mult_28_n68
*546 i_DP_i_MULTIPLIER_A1_mult_28_n65
*547 i_DP_i_MULTIPLIER_A1_mult_28_n64
*548 i_DP_i_MULTIPLIER_A1_mult_28_n63
*549 i_DP_i_MULTIPLIER_A1_mult_28_n62
*550 i_DP_i_MULTIPLIER_A1_mult_28_n61
*551 i_DP_i_MULTIPLIER_A1_mult_28_n60
*552 i_DP_i_MULTIPLIER_A1_mult_28_n59
*553 i_DP_i_MULTIPLIER_A1_mult_28_n56
*554 i_DP_i_MULTIPLIER_A1_mult_28_n55
*555 i_DP_i_MULTIPLIER_A1_mult_28_n54
*556 i_DP_i_MULTIPLIER_A1_mult_28_n53
*557 i_DP_i_MULTIPLIER_A1_mult_28_n50
*558 i_DP_i_MULTIPLIER_A1_mult_28_n49
*559 i_DP_i_MULTIPLIER_A1_mult_28_n48
*560 i_DP_i_MULTIPLIER_A1_mult_28_n47
*561 i_DP_i_MULTIPLIER_A1_mult_28_n46
*562 i_DP_i_MULTIPLIER_A1_mult_28_n45
*563 i_DP_i_MULTIPLIER_A1_mult_28_n42
*564 i_DP_i_MULTIPLIER_A1_mult_28_n41
*565 i_DP_i_MULTIPLIER_A1_mult_28_n40
*566 i_DP_i_MULTIPLIER_A1_mult_28_n39
*567 i_DP_i_MULTIPLIER_A1_mult_28_n38
*568 i_DP_i_MULTIPLIER_A1_mult_28_n37
*569 i_DP_i_MULTIPLIER_A1_mult_28_n36
*570 i_DP_i_MULTIPLIER_A1_mult_28_n35
*571 i_DP_i_MULTIPLIER_A1_mult_28_n34
*572 i_DP_i_MULTIPLIER_A1_mult_28_n33
*573 i_DP_i_MULTIPLIER_A1_mult_28_n32
*574 i_DP_i_MULTIPLIER_A1_mult_28_n31
*575 i_DP_i_MULTIPLIER_A1_mult_28_n30
*576 i_DP_i_MULTIPLIER_A1_mult_28_n29
*577 i_DP_i_MULTIPLIER_A1_mult_28_n28
*578 i_DP_i_MULTIPLIER_A1_mult_28_n27
*579 i_DP_i_MULTIPLIER_A1_mult_28_n26
*580 i_DP_i_MULTIPLIER_A1_mult_28_n25
*581 i_DP_i_MULTIPLIER_A1_mult_28_n24
*582 i_DP_i_MULTIPLIER_A1_mult_28_n23
*583 i_DP_i_MULTIPLIER_A1_mult_28_n21
*584 i_DP_i_MULTIPLIER_A1_mult_28_n19
*585 i_DP_i_MULTIPLIER_A1_mult_28_n18
*586 i_DP_i_MULTIPLIER_A1_mult_28_n16
*587 i_DP_i_MULTIPLIER_A1_mult_28_n15
*588 i_DP_i_MULTIPLIER_A1_mult_28_n14
*589 i_DP_i_MULTIPLIER_A1_mult_28_n13
*590 i_DP_i_MULTIPLIER_A1_mult_28_n12
*591 i_DP_i_MULTIPLIER_A1_mult_28_n11
*592 i_DP_i_MULTIPLIER_A1_mult_28_n10
*593 i_DP_i_MULTIPLIER_A1_mult_28_n9
*594 i_DP_i_MULTIPLIER_A1_mult_28_n8
*595 i_DP_i_MULTIPLIER_A1_mult_28_n2
*596 i_DP_i_MULTIPLIER_A1_mult_28_n1
*597 i_DP_i_MULTIPLIER_A2_MULTIPLIER_OUT_P_0_
*598 i_DP_i_MULTIPLIER_A2_MULTIPLIER_OUT_P_1_
*599 i_DP_i_MULTIPLIER_A2_MULTIPLIER_OUT_P_2_
*600 i_DP_i_MULTIPLIER_A2_MULTIPLIER_OUT_P_3_
*601 i_DP_i_MULTIPLIER_A2_MULTIPLIER_OUT_P_4_
*602 i_DP_i_MULTIPLIER_A2_MULTIPLIER_OUT_P_5_
*603 i_DP_i_MULTIPLIER_A2_MULTIPLIER_OUT_P_6_
*604 i_DP_i_MULTIPLIER_A2_MULTIPLIER_OUT_P_7_
*605 i_DP_i_MULTIPLIER_A2_MULTIPLIER_OUT_P_8_
*606 i_DP_i_MULTIPLIER_A2_MULTIPLIER_OUT_P_9_
*607 i_DP_i_MULTIPLIER_A2_MULTIPLIER_OUT_P_18_
*608 i_DP_i_MULTIPLIER_A2_MULTIPLIER_OUT_P_19_
*609 i_DP_i_MULTIPLIER_A2_mult_28_n518
*610 i_DP_i_MULTIPLIER_A2_mult_28_n515
*611 i_DP_i_MULTIPLIER_A2_mult_28_n514
*612 i_DP_i_MULTIPLIER_A2_mult_28_n512
*613 i_DP_i_MULTIPLIER_A2_mult_28_n511
*614 i_DP_i_MULTIPLIER_A2_mult_28_n510
*615 i_DP_i_MULTIPLIER_A2_mult_28_n503
*616 i_DP_i_MULTIPLIER_A2_mult_28_n502
*617 i_DP_i_MULTIPLIER_A2_mult_28_n501
*618 i_DP_i_MULTIPLIER_A2_mult_28_n500
*619 i_DP_i_MULTIPLIER_A2_mult_28_n499
*620 i_DP_i_MULTIPLIER_A2_mult_28_n498
*621 i_DP_i_MULTIPLIER_A2_mult_28_n497
*622 i_DP_i_MULTIPLIER_A2_mult_28_n491
*623 i_DP_i_MULTIPLIER_A2_mult_28_n490
*624 i_DP_i_MULTIPLIER_A2_mult_28_n489
*625 i_DP_i_MULTIPLIER_A2_mult_28_n488
*626 i_DP_i_MULTIPLIER_A2_mult_28_n487
*627 i_DP_i_MULTIPLIER_A2_mult_28_n486
*628 i_DP_i_MULTIPLIER_A2_mult_28_n485
*629 i_DP_i_MULTIPLIER_A2_mult_28_n484
*630 i_DP_i_MULTIPLIER_A2_mult_28_n475
*631 i_DP_i_MULTIPLIER_A2_mult_28_n474
*632 i_DP_i_MULTIPLIER_A2_mult_28_n473
*633 i_DP_i_MULTIPLIER_A2_mult_28_n472
*634 i_DP_i_MULTIPLIER_A2_mult_28_n471
*635 i_DP_i_MULTIPLIER_A2_mult_28_n470
*636 i_DP_i_MULTIPLIER_A2_mult_28_n469
*637 i_DP_i_MULTIPLIER_A2_mult_28_n468
*638 i_DP_i_MULTIPLIER_A2_mult_28_n467
*639 i_DP_i_MULTIPLIER_A2_mult_28_n463
*640 i_DP_i_MULTIPLIER_A2_mult_28_n457
*641 i_DP_i_MULTIPLIER_A2_mult_28_n454
*642 i_DP_i_MULTIPLIER_A2_mult_28_n451
*643 i_DP_i_MULTIPLIER_A2_mult_28_n450
*644 i_DP_i_MULTIPLIER_A2_mult_28_n447
*645 i_DP_i_MULTIPLIER_A2_mult_28_n444
*646 i_DP_i_MULTIPLIER_A2_mult_28_n441
*647 i_DP_i_MULTIPLIER_A2_mult_28_n440
*648 i_DP_i_MULTIPLIER_A2_mult_28_n436
*649 i_DP_i_MULTIPLIER_A2_mult_28_n367
*650 i_DP_i_MULTIPLIER_A2_mult_28_n366
*651 i_DP_i_MULTIPLIER_A2_mult_28_n365
*652 i_DP_i_MULTIPLIER_A2_mult_28_n363
*653 i_DP_i_MULTIPLIER_A2_mult_28_n362
*654 i_DP_i_MULTIPLIER_A2_mult_28_n361
*655 i_DP_i_MULTIPLIER_A2_mult_28_n359
*656 i_DP_i_MULTIPLIER_A2_mult_28_n356
*657 i_DP_i_MULTIPLIER_A2_mult_28_n354
*658 i_DP_i_MULTIPLIER_A2_mult_28_n343
*659 i_DP_i_MULTIPLIER_A2_mult_28_n342
*660 i_DP_i_MULTIPLIER_A2_mult_28_n341
*661 i_DP_i_MULTIPLIER_A2_mult_28_n340
*662 i_DP_i_MULTIPLIER_A2_mult_28_n339
*663 i_DP_i_MULTIPLIER_A2_mult_28_n338
*664 i_DP_i_MULTIPLIER_A2_mult_28_n337
*665 i_DP_i_MULTIPLIER_A2_mult_28_n336
*666 i_DP_i_MULTIPLIER_A2_mult_28_n335
*667 i_DP_i_MULTIPLIER_A2_mult_28_n334
*668 i_DP_i_MULTIPLIER_A2_mult_28_n333
*669 i_DP_i_MULTIPLIER_A2_mult_28_n332
*670 i_DP_i_MULTIPLIER_A2_mult_28_n331
*671 i_DP_i_MULTIPLIER_A2_mult_28_n330
*672 i_DP_i_MULTIPLIER_A2_mult_28_n329
*673 i_DP_i_MULTIPLIER_A2_mult_28_n328
*674 i_DP_i_MULTIPLIER_A2_mult_28_n327
*675 i_DP_i_MULTIPLIER_A2_mult_28_n326
*676 i_DP_i_MULTIPLIER_A2_mult_28_n325
*677 i_DP_i_MULTIPLIER_A2_mult_28_n324
*678 i_DP_i_MULTIPLIER_A2_mult_28_n323
*679 i_DP_i_MULTIPLIER_A2_mult_28_n322
*680 i_DP_i_MULTIPLIER_A2_mult_28_n321
*681 i_DP_i_MULTIPLIER_A2_mult_28_n320
*682 i_DP_i_MULTIPLIER_A2_mult_28_n319
*683 i_DP_i_MULTIPLIER_A2_mult_28_n318
*684 i_DP_i_MULTIPLIER_A2_mult_28_n317
*685 i_DP_i_MULTIPLIER_A2_mult_28_n316
*686 i_DP_i_MULTIPLIER_A2_mult_28_n315
*687 i_DP_i_MULTIPLIER_A2_mult_28_n314
*688 i_DP_i_MULTIPLIER_A2_mult_28_n313
*689 i_DP_i_MULTIPLIER_A2_mult_28_n312
*690 i_DP_i_MULTIPLIER_A2_mult_28_n311
*691 i_DP_i_MULTIPLIER_A2_mult_28_n310
*692 i_DP_i_MULTIPLIER_A2_mult_28_n309
*693 i_DP_i_MULTIPLIER_A2_mult_28_n308
*694 i_DP_i_MULTIPLIER_A2_mult_28_n307
*695 i_DP_i_MULTIPLIER_A2_mult_28_n306
*696 i_DP_i_MULTIPLIER_A2_mult_28_n305
*697 i_DP_i_MULTIPLIER_A2_mult_28_n304
*698 i_DP_i_MULTIPLIER_A2_mult_28_n303
*699 i_DP_i_MULTIPLIER_A2_mult_28_n302
*700 i_DP_i_MULTIPLIER_A2_mult_28_n301
*701 i_DP_i_MULTIPLIER_A2_mult_28_n300
*702 i_DP_i_MULTIPLIER_A2_mult_28_n299
*703 i_DP_i_MULTIPLIER_A2_mult_28_n298
*704 i_DP_i_MULTIPLIER_A2_mult_28_n297
*705 i_DP_i_MULTIPLIER_A2_mult_28_n296
*706 i_DP_i_MULTIPLIER_A2_mult_28_n295
*707 i_DP_i_MULTIPLIER_A2_mult_28_n294
*708 i_DP_i_MULTIPLIER_A2_mult_28_n293
*709 i_DP_i_MULTIPLIER_A2_mult_28_n292
*710 i_DP_i_MULTIPLIER_A2_mult_28_n291
*711 i_DP_i_MULTIPLIER_A2_mult_28_n290
*712 i_DP_i_MULTIPLIER_A2_mult_28_n289
*713 i_DP_i_MULTIPLIER_A2_mult_28_n288
*714 i_DP_i_MULTIPLIER_A2_mult_28_n287
*715 i_DP_i_MULTIPLIER_A2_mult_28_n286
*716 i_DP_i_MULTIPLIER_A2_mult_28_n285
*717 i_DP_i_MULTIPLIER_A2_mult_28_n284
*718 i_DP_i_MULTIPLIER_A2_mult_28_n283
*719 i_DP_i_MULTIPLIER_A2_mult_28_n282
*720 i_DP_i_MULTIPLIER_A2_mult_28_n281
*721 i_DP_i_MULTIPLIER_A2_mult_28_n280
*722 i_DP_i_MULTIPLIER_A2_mult_28_n279
*723 i_DP_i_MULTIPLIER_A2_mult_28_n278
*724 i_DP_i_MULTIPLIER_A2_mult_28_n277
*725 i_DP_i_MULTIPLIER_A2_mult_28_n276
*726 i_DP_i_MULTIPLIER_A2_mult_28_n275
*727 i_DP_i_MULTIPLIER_A2_mult_28_n274
*728 i_DP_i_MULTIPLIER_A2_mult_28_n273
*729 i_DP_i_MULTIPLIER_A2_mult_28_n272
*730 i_DP_i_MULTIPLIER_A2_mult_28_n271
*731 i_DP_i_MULTIPLIER_A2_mult_28_n270
*732 i_DP_i_MULTIPLIER_A2_mult_28_n269
*733 i_DP_i_MULTIPLIER_A2_mult_28_n268
*734 i_DP_i_MULTIPLIER_A2_mult_28_n267
*735 i_DP_i_MULTIPLIER_A2_mult_28_n266
*736 i_DP_i_MULTIPLIER_A2_mult_28_n265
*737 i_DP_i_MULTIPLIER_A2_mult_28_n264
*738 i_DP_i_MULTIPLIER_A2_mult_28_n263
*739 i_DP_i_MULTIPLIER_A2_mult_28_n262
*740 i_DP_i_MULTIPLIER_A2_mult_28_n261
*741 i_DP_i_MULTIPLIER_A2_mult_28_n260
*742 i_DP_i_MULTIPLIER_A2_mult_28_n259
*743 i_DP_i_MULTIPLIER_A2_mult_28_n258
*744 i_DP_i_MULTIPLIER_A2_mult_28_n257
*745 i_DP_i_MULTIPLIER_A2_mult_28_n256
*746 i_DP_i_MULTIPLIER_A2_mult_28_n255
*747 i_DP_i_MULTIPLIER_A2_mult_28_n254
*748 i_DP_i_MULTIPLIER_A2_mult_28_n253
*749 i_DP_i_MULTIPLIER_A2_mult_28_n252
*750 i_DP_i_MULTIPLIER_A2_mult_28_n251
*751 i_DP_i_MULTIPLIER_A2_mult_28_n250
*752 i_DP_i_MULTIPLIER_A2_mult_28_n249
*753 i_DP_i_MULTIPLIER_A2_mult_28_n248
*754 i_DP_i_MULTIPLIER_A2_mult_28_n247
*755 i_DP_i_MULTIPLIER_A2_mult_28_n246
*756 i_DP_i_MULTIPLIER_A2_mult_28_n245
*757 i_DP_i_MULTIPLIER_A2_mult_28_n244
*758 i_DP_i_MULTIPLIER_A2_mult_28_n243
*759 i_DP_i_MULTIPLIER_A2_mult_28_n242
*760 i_DP_i_MULTIPLIER_A2_mult_28_n241
*761 i_DP_i_MULTIPLIER_A2_mult_28_n240
*762 i_DP_i_MULTIPLIER_A2_mult_28_n239
*763 i_DP_i_MULTIPLIER_A2_mult_28_n238
*764 i_DP_i_MULTIPLIER_A2_mult_28_n237
*765 i_DP_i_MULTIPLIER_A2_mult_28_n236
*766 i_DP_i_MULTIPLIER_A2_mult_28_n235
*767 i_DP_i_MULTIPLIER_A2_mult_28_n234
*768 i_DP_i_MULTIPLIER_A2_mult_28_n231
*769 i_DP_i_MULTIPLIER_A2_mult_28_n228
*770 i_DP_i_MULTIPLIER_A2_mult_28_n226
*771 i_DP_i_MULTIPLIER_A2_mult_28_n225
*772 i_DP_i_MULTIPLIER_A2_mult_28_n223
*773 i_DP_i_MULTIPLIER_A2_mult_28_n222
*774 i_DP_i_MULTIPLIER_A2_mult_28_n220
*775 i_DP_i_MULTIPLIER_A2_mult_28_n219
*776 i_DP_i_MULTIPLIER_A2_mult_28_n218
*777 i_DP_i_MULTIPLIER_A2_mult_28_n217
*778 i_DP_i_MULTIPLIER_A2_mult_28_n216
*779 i_DP_i_MULTIPLIER_A2_mult_28_n215
*780 i_DP_i_MULTIPLIER_A2_mult_28_n214
*781 i_DP_i_MULTIPLIER_A2_mult_28_n213
*782 i_DP_i_MULTIPLIER_A2_mult_28_n212
*783 i_DP_i_MULTIPLIER_A2_mult_28_n211
*784 i_DP_i_MULTIPLIER_A2_mult_28_n210
*785 i_DP_i_MULTIPLIER_A2_mult_28_n209
*786 i_DP_i_MULTIPLIER_A2_mult_28_n208
*787 i_DP_i_MULTIPLIER_A2_mult_28_n207
*788 i_DP_i_MULTIPLIER_A2_mult_28_n206
*789 i_DP_i_MULTIPLIER_A2_mult_28_n205
*790 i_DP_i_MULTIPLIER_A2_mult_28_n204
*791 i_DP_i_MULTIPLIER_A2_mult_28_n203
*792 i_DP_i_MULTIPLIER_A2_mult_28_n202
*793 i_DP_i_MULTIPLIER_A2_mult_28_n201
*794 i_DP_i_MULTIPLIER_A2_mult_28_n200
*795 i_DP_i_MULTIPLIER_A2_mult_28_n199
*796 i_DP_i_MULTIPLIER_A2_mult_28_n198
*797 i_DP_i_MULTIPLIER_A2_mult_28_n197
*798 i_DP_i_MULTIPLIER_A2_mult_28_n196
*799 i_DP_i_MULTIPLIER_A2_mult_28_n195
*800 i_DP_i_MULTIPLIER_A2_mult_28_n194
*801 i_DP_i_MULTIPLIER_A2_mult_28_n193
*802 i_DP_i_MULTIPLIER_A2_mult_28_n192
*803 i_DP_i_MULTIPLIER_A2_mult_28_n191
*804 i_DP_i_MULTIPLIER_A2_mult_28_n190
*805 i_DP_i_MULTIPLIER_A2_mult_28_n189
*806 i_DP_i_MULTIPLIER_A2_mult_28_n188
*807 i_DP_i_MULTIPLIER_A2_mult_28_n187
*808 i_DP_i_MULTIPLIER_A2_mult_28_n186
*809 i_DP_i_MULTIPLIER_A2_mult_28_n185
*810 i_DP_i_MULTIPLIER_A2_mult_28_n184
*811 i_DP_i_MULTIPLIER_A2_mult_28_n183
*812 i_DP_i_MULTIPLIER_A2_mult_28_n182
*813 i_DP_i_MULTIPLIER_A2_mult_28_n181
*814 i_DP_i_MULTIPLIER_A2_mult_28_n180
*815 i_DP_i_MULTIPLIER_A2_mult_28_n179
*816 i_DP_i_MULTIPLIER_A2_mult_28_n178
*817 i_DP_i_MULTIPLIER_A2_mult_28_n177
*818 i_DP_i_MULTIPLIER_A2_mult_28_n176
*819 i_DP_i_MULTIPLIER_A2_mult_28_n175
*820 i_DP_i_MULTIPLIER_A2_mult_28_n174
*821 i_DP_i_MULTIPLIER_A2_mult_28_n173
*822 i_DP_i_MULTIPLIER_A2_mult_28_n172
*823 i_DP_i_MULTIPLIER_A2_mult_28_n171
*824 i_DP_i_MULTIPLIER_A2_mult_28_n170
*825 i_DP_i_MULTIPLIER_A2_mult_28_n169
*826 i_DP_i_MULTIPLIER_A2_mult_28_n168
*827 i_DP_i_MULTIPLIER_A2_mult_28_n167
*828 i_DP_i_MULTIPLIER_A2_mult_28_n166
*829 i_DP_i_MULTIPLIER_A2_mult_28_n165
*830 i_DP_i_MULTIPLIER_A2_mult_28_n164
*831 i_DP_i_MULTIPLIER_A2_mult_28_n163
*832 i_DP_i_MULTIPLIER_A2_mult_28_n162
*833 i_DP_i_MULTIPLIER_A2_mult_28_n161
*834 i_DP_i_MULTIPLIER_A2_mult_28_n160
*835 i_DP_i_MULTIPLIER_A2_mult_28_n159
*836 i_DP_i_MULTIPLIER_A2_mult_28_n158
*837 i_DP_i_MULTIPLIER_A2_mult_28_n157
*838 i_DP_i_MULTIPLIER_A2_mult_28_n156
*839 i_DP_i_MULTIPLIER_A2_mult_28_n155
*840 i_DP_i_MULTIPLIER_A2_mult_28_n154
*841 i_DP_i_MULTIPLIER_A2_mult_28_n153
*842 i_DP_i_MULTIPLIER_A2_mult_28_n152
*843 i_DP_i_MULTIPLIER_A2_mult_28_n151
*844 i_DP_i_MULTIPLIER_A2_mult_28_n150
*845 i_DP_i_MULTIPLIER_A2_mult_28_n149
*846 i_DP_i_MULTIPLIER_A2_mult_28_n148
*847 i_DP_i_MULTIPLIER_A2_mult_28_n147
*848 i_DP_i_MULTIPLIER_A2_mult_28_n145
*849 i_DP_i_MULTIPLIER_A2_mult_28_n142
*850 i_DP_i_MULTIPLIER_A2_mult_28_n138
*851 i_DP_i_MULTIPLIER_A2_mult_28_n137
*852 i_DP_i_MULTIPLIER_A2_mult_28_n135
*853 i_DP_i_MULTIPLIER_A2_mult_28_n132
*854 i_DP_i_MULTIPLIER_A2_mult_28_n131
*855 i_DP_i_MULTIPLIER_A2_mult_28_n129