*SPEF "IEEE 1481-1998"
*DESIGN "IIR"
*DATE "Tue Oct 19 14:37:06 2021"
*VENDOR "Cadence Design Systems, Inc."
*PROGRAM "Innovus"
*VERSION "17.11-s080_1"
*DESIGN_FLOW "COUPLING C" "PIN_CAP NONE" "NAME_SCOPE LOCAL"
*DIVIDER /
*DELIMITER :
*BUS_DELIMITER []
*T_UNIT 1 NS
*C_UNIT 1 PF
*R_UNIT 1 OHM
*L_UNIT 1 HENRY

// MMMC spef file for corner 'my_rc'

*NAME_MAP

*1 DIN[8]
*2 DIN[7]
*3 DIN[6]
*4 DIN[5]
*5 DIN[4]
*6 DIN[3]
*7 DIN[2]
*8 DIN[1]
*9 DIN[0]
*10 A1[8]
*11 A1[7]
*12 A1[6]
*13 A1[5]
*14 A1[4]
*15 A1[3]
*16 A1[2]
*17 A1[1]
*18 A1[0]
*19 A2[8]
*20 A2[7]
*21 A2[6]
*22 A2[5]
*23 A2[4]
*24 A2[3]
*25 A2[2]
*26 A2[1]
*27 A2[0]
*28 B0[8]
*29 B0[7]
*30 B0[6]
*31 B0[5]
*32 B0[4]
*33 B0[3]
*34 B0[2]
*35 B0[1]
*36 B0[0]
*37 B1[8]
*38 B1[7]
*39 B1[6]
*40 B1[5]
*41 B1[4]
*42 B1[3]
*43 B1[2]
*44 B1[1]
*45 B1[0]
*46 B2[8]
*47 B2[7]
*48 B2[6]
*49 B2[5]
*50 B2[4]
*51 B2[3]
*52 B2[2]
*53 B2[1]
*54 B2[0]
*55 VIN
*56 CLK
*57 RST_N
*58 DOUT[8]
*59 DOUT[7]
*60 DOUT[6]
*61 DOUT[5]
*62 DOUT[4]
*63 DOUT[3]
*64 DOUT[2]
*65 DOUT[1]
*66 DOUT[0]
*67 VOUT
*68 FE_PHN15_FE_OFN5_RST_N
*69 FE_PHN14_FE_OFN5_RST_N
*70 FE_PHN13_FE_OFN5_RST_N
*71 FE_PHN12_FE_OFN5_RST_N
*72 FE_PHN11_FE_OFN5_RST_N
*73 FE_PHN10_FE_OFN5_RST_N
*74 FE_PHN9_FE_OFN5_RST_N
*75 FE_OFN8_i_DP_i_MULTIPLIER_A1_mult_28_n463
*76 FE_OFN7_i_DP_i_MULTIPLIER_A1_mult_28_n340
*77 FE_OFN6_i_DP_i_MULTIPLIER_A2_mult_28_n342
*78 FE_OFN5_RST_N
*79 FE_OFN4_i_DP_i_MULTIPLIER_A1_mult_28_n505
*80 FE_OFN3_i_DP_i_MULTIPLIER_A2_mult_28_n343
*81 FE_OFN2_i_DP_i_MULTIPLIER_A2_mult_28_n341
*82 FE_OFN1_i_DP_i_MULTIPLIER_B1_mult_28_n355
*83 FE_OFN0_i_DP_i_MULTIPLIER_B2_mult_28_n343
*84 FE_DBTN3_i_DP_W_DELAY_1_0
*85 FE_DBTN2_i_DP_W_DELAY_2_0
*86 FE_DBTN1_i_DP_i_MULTIPLIER_B1_mult_28_n305
*87 FE_DBTN0_i_DP_i_MULTIPLIER_B2_mult_28_n305
*88 VIN_FROM_REGIN
*89 i_input_register_DIN_n9
*90 i_input_register_DIN_n8
*91 i_input_register_DIN_n7
*92 i_input_register_DIN_n6
*93 i_input_register_DIN_n5
*94 i_input_register_DIN_n4
*95 i_input_register_DIN_n3
*96 i_input_register_DIN_n2
*97 i_input_register_DIN_n1
*98 i_input_register_DIN_n27
*99 i_input_register_DIN_n26
*100 i_input_register_DIN_n25
*101 i_input_register_DIN_n24
*102 i_input_register_DIN_n23
*103 i_input_register_DIN_n22
*104 i_input_register_DIN_n21
*105 i_input_register_DIN_n20
*106 i_input_register_DIN_n19
*107 i_input_register_DIN_n18
*108 i_input_register_DIN_n17
*109 i_input_register_DIN_n16
*110 i_input_register_DIN_n15
*111 i_input_register_DIN_n14
*112 i_input_register_DIN_n13
*113 i_input_register_DIN_n12
*114 i_input_register_DIN_n11
*115 i_input_register_DIN_n10
*116 i_two_complement_A1_n9
*117 i_two_complement_A1_n8
*118 i_two_complement_A1_n7
*119 i_two_complement_A1_n6
*120 i_two_complement_A1_n5
*121 i_two_complement_A1_n4
*122 i_two_complement_A1_n3
*123 i_two_complement_A1_n2
*124 i_two_complement_A2_n9
*125 i_two_complement_A2_n8
*126 i_two_complement_A2_n7
*127 i_two_complement_A2_n6
*128 i_two_complement_A2_n5
*129 i_two_complement_A2_n4
*130 i_two_complement_A2_n3
*131 i_two_complement_A2_n2
*132 i_DP_i_ADDER_0_add_28_n104
*133 i_DP_i_ADDER_0_add_28_n103
*134 i_DP_i_ADDER_0_add_28_n102
*135 i_DP_i_ADDER_0_add_28_n101
*136 i_DP_i_ADDER_0_add_28_n98
*137 i_DP_i_ADDER_0_add_28_n97
*138 i_DP_i_ADDER_0_add_28_n95
*139 i_DP_i_ADDER_0_add_28_n94
*140 i_DP_i_ADDER_0_add_28_n54
*141 i_DP_i_ADDER_0_add_28_n52
*142 i_DP_i_ADDER_0_add_28_n51
*143 i_DP_i_ADDER_0_add_28_n50
*144 i_DP_i_ADDER_0_add_28_n49
*145 i_DP_i_ADDER_0_add_28_n44
*146 i_DP_i_ADDER_0_add_28_n43
*147 i_DP_i_ADDER_0_add_28_n42
*148 i_DP_i_ADDER_0_add_28_n41
*149 i_DP_i_ADDER_0_add_28_n40
*150 i_DP_i_ADDER_0_add_28_n39
*151 i_DP_i_ADDER_0_add_28_n34
*152 i_DP_i_ADDER_0_add_28_n33
*153 i_DP_i_ADDER_0_add_28_n32
*154 i_DP_i_ADDER_0_add_28_n31
*155 i_DP_i_ADDER_0_add_28_n30
*156 i_DP_i_ADDER_0_add_28_n29
*157 i_DP_i_ADDER_0_add_28_n28
*158 i_DP_i_ADDER_0_add_28_n27
*159 i_DP_i_ADDER_0_add_28_n26
*160 i_DP_i_ADDER_0_add_28_n25
*161 i_DP_i_ADDER_0_add_28_n24
*162 i_DP_i_ADDER_0_add_28_n23
*163 i_DP_i_ADDER_0_add_28_n22
*164 i_DP_i_ADDER_0_add_28_n21
*165 i_DP_i_ADDER_0_add_28_n20
*166 i_DP_i_ADDER_0_add_28_n19
*167 i_DP_i_ADDER_0_add_28_n18
*168 i_DP_i_ADDER_0_add_28_n16
*169 i_DP_i_ADDER_0_add_28_n14
*170 i_DP_i_ADDER_0_add_28_n13
*171 i_DP_i_ADDER_0_add_28_n11
*172 i_DP_i_ADDER_0_add_28_n10
*173 i_DP_i_ADDER_0_add_28_n8
*174 i_DP_i_ADDER_0_add_28_n7
*175 i_DP_i_ADDER_0_add_28_n6
*176 i_DP_i_ADDER_0_add_28_n4
*177 i_DP_i_ADDER_0_add_28_n3
*178 i_DP_i_ADDER_0_add_28_n2
*179 i_DP_i_ADDER_0_add_28_n1
*180 i_DP_i_reg_0_n32
*181 i_DP_i_reg_0_n10
*182 i_DP_i_reg_0_n6
*183 i_DP_i_reg_0_n4
*184 i_DP_i_reg_0_n3
*185 i_DP_i_reg_0_n2
*186 i_DP_i_reg_0_n1
*187 i_DP_i_reg_0_n30
*188 i_DP_i_reg_0_n29
*189 i_DP_i_reg_0_n28
*190 i_DP_i_reg_0_n27
*191 i_DP_i_reg_0_n26
*192 i_DP_i_reg_0_n25
*193 i_DP_i_reg_0_n24
*194 i_DP_i_reg_0_n23
*195 i_DP_i_reg_0_n22
*196 i_DP_i_reg_0_n21
*197 i_DP_i_reg_0_n20
*198 i_DP_i_reg_0_n19
*199 i_DP_i_reg_0_n18
*200 i_DP_i_reg_0_n17
*201 i_DP_i_reg_0_n16
*202 i_DP_i_reg_0_n15
*203 i_DP_i_reg_0_n14
*204 i_DP_i_reg_0_n13
*205 i_DP_i_reg_0_n12
*206 i_DP_i_reg_0_n11
*207 i_DP_i_reg_0_n34
*208 i_DP_i_reg_1_n51
*209 i_DP_i_reg_1_n50
*210 i_DP_i_reg_1_n49
*211 i_DP_i_reg_1_n48
*212 i_DP_i_reg_1_n47
*213 i_DP_i_reg_1_n46
*214 i_DP_i_reg_1_n45
*215 i_DP_i_reg_1_n44
*216 i_DP_i_reg_1_n43
*217 i_DP_i_reg_1_n42
*218 i_DP_i_reg_1_n41
*219 i_DP_i_reg_1_n40
*220 i_DP_i_reg_1_n39
*221 i_DP_i_reg_1_n38
*222 i_DP_i_reg_1_n37
*223 i_DP_i_reg_1_n36
*224 i_DP_i_reg_1_n35
*225 i_DP_i_reg_1_n34
*226 i_DP_i_reg_1_n33
*227 i_DP_i_reg_1_n32
*228 i_DP_i_reg_1_n10
*229 i_DP_i_reg_1_n2
*230 i_DP_i_reg_1_n1
*231 i_DP_i_reg_1_n56
*232 i_DP_i_reg_1_n55
*233 i_DP_i_reg_1_n54
*234 i_DP_i_reg_1_n53
*235 i_DP_i_reg_1_n52
*236 i_DP_i_MULTIPLIER_A1_MULTIPLIER_OUT_P_0_
*237 i_DP_i_MULTIPLIER_A1_MULTIPLIER_OUT_P_1_
*238 i_DP_i_MULTIPLIER_A1_MULTIPLIER_OUT_P_2_
*239 i_DP_i_MULTIPLIER_A1_MULTIPLIER_OUT_P_3_
*240 i_DP_i_MULTIPLIER_A1_MULTIPLIER_OUT_P_4_
*241 i_DP_i_MULTIPLIER_A1_MULTIPLIER_OUT_P_5_
*242 i_DP_i_MULTIPLIER_A1_MULTIPLIER_OUT_P_6_
*243 i_DP_i_MULTIPLIER_A1_MULTIPLIER_OUT_P_7_
*244 i_DP_i_MULTIPLIER_A1_MULTIPLIER_OUT_P_8_
*245 i_DP_i_MULTIPLIER_A1_MULTIPLIER_OUT_P_9_
*246 i_DP_i_MULTIPLIER_A1_MULTIPLIER_OUT_P_18_
*247 i_DP_i_MULTIPLIER_A1_MULTIPLIER_OUT_P_19_
*248 i_DP_i_MULTIPLIER_A1_mult_28_n514
*249 i_DP_i_MULTIPLIER_A1_mult_28_n512
*250 i_DP_i_MULTIPLIER_A1_mult_28_n510
*251 i_DP_i_MULTIPLIER_A1_mult_28_n509
*252 i_DP_i_MULTIPLIER_A1_mult_28_n508
*253 i_DP_i_MULTIPLIER_A1_mult_28_n507
*254 i_DP_i_MULTIPLIER_A1_mult_28_n506
*255 i_DP_i_MULTIPLIER_A1_mult_28_n505
*256 i_DP_i_MULTIPLIER_A1_mult_28_n494
*257 i_DP_i_MULTIPLIER_A1_mult_28_n493
*258 i_DP_i_MULTIPLIER_A1_mult_28_n492
*259 i_DP_i_MULTIPLIER_A1_mult_28_n491
*260 i_DP_i_MULTIPLIER_A1_mult_28_n490
*261 i_DP_i_MULTIPLIER_A1_mult_28_n489
*262 i_DP_i_MULTIPLIER_A1_mult_28_n487
*263 i_DP_i_MULTIPLIER_A1_mult_28_n486
*264 i_DP_i_MULTIPLIER_A1_mult_28_n485
*265 i_DP_i_MULTIPLIER_A1_mult_28_n484
*266 i_DP_i_MULTIPLIER_A1_mult_28_n483
*267 i_DP_i_MULTIPLIER_A1_mult_28_n480
*268 i_DP_i_MULTIPLIER_A1_mult_28_n479
*269 i_DP_i_MULTIPLIER_A1_mult_28_n478
*270 i_DP_i_MULTIPLIER_A1_mult_28_n477
*271 i_DP_i_MULTIPLIER_A1_mult_28_n476
*272 i_DP_i_MULTIPLIER_A1_mult_28_n474
*273 i_DP_i_MULTIPLIER_A1_mult_28_n471
*274 i_DP_i_MULTIPLIER_A1_mult_28_n470
*275 i_DP_i_MULTIPLIER_A1_mult_28_n469
*276 i_DP_i_MULTIPLIER_A1_mult_28_n468
*277 i_DP_i_MULTIPLIER_A1_mult_28_n467
*278 i_DP_i_MULTIPLIER_A1_mult_28_n465
*279 i_DP_i_MULTIPLIER_A1_mult_28_n464
*280 i_DP_i_MULTIPLIER_A1_mult_28_n463
*281 i_DP_i_MULTIPLIER_A1_mult_28_n462
*282 i_DP_i_MULTIPLIER_A1_mult_28_n461
*283 i_DP_i_MULTIPLIER_A1_mult_28_n460
*284 i_DP_i_MULTIPLIER_A1_mult_28_n458
*285 i_DP_i_MULTIPLIER_A1_mult_28_n457
*286 i_DP_i_MULTIPLIER_A1_mult_28_n455
*287 i_DP_i_MULTIPLIER_A1_mult_28_n453
*288 i_DP_i_MULTIPLIER_A1_mult_28_n446
*289 i_DP_i_MULTIPLIER_A1_mult_28_n444
*290 i_DP_i_MULTIPLIER_A1_mult_28_n440
*291 i_DP_i_MULTIPLIER_A1_mult_28_n437
*292 i_DP_i_MULTIPLIER_A1_mult_28_n433
*293 i_DP_i_MULTIPLIER_A1_mult_28_n429
*294 i_DP_i_MULTIPLIER_A1_mult_28_n428
*295 i_DP_i_MULTIPLIER_A1_mult_28_n427
*296 i_DP_i_MULTIPLIER_A1_mult_28_n425
*297 i_DP_i_MULTIPLIER_A1_mult_28_n424
*298 i_DP_i_MULTIPLIER_A1_mult_28_n423
*299 i_DP_i_MULTIPLIER_A1_mult_28_n422
*300 i_DP_i_MULTIPLIER_A1_mult_28_n343
*301 i_DP_i_MULTIPLIER_A1_mult_28_n340
*302 i_DP_i_MULTIPLIER_A1_mult_28_n338
*303 i_DP_i_MULTIPLIER_A1_mult_28_n337
*304 i_DP_i_MULTIPLIER_A1_mult_28_n335
*305 i_DP_i_MULTIPLIER_A1_mult_28_n333
*306 i_DP_i_MULTIPLIER_A1_mult_28_n332
*307 i_DP_i_MULTIPLIER_A1_mult_28_n319
*308 i_DP_i_MULTIPLIER_A1_mult_28_n318
*309 i_DP_i_MULTIPLIER_A1_mult_28_n317
*310 i_DP_i_MULTIPLIER_A1_mult_28_n316
*311 i_DP_i_MULTIPLIER_A1_mult_28_n315
*312 i_DP_i_MULTIPLIER_A1_mult_28_n314
*313 i_DP_i_MULTIPLIER_A1_mult_28_n313
*314 i_DP_i_MULTIPLIER_A1_mult_28_n312
*315 i_DP_i_MULTIPLIER_A1_mult_28_n311
*316 i_DP_i_MULTIPLIER_A1_mult_28_n310
*317 i_DP_i_MULTIPLIER_A1_mult_28_n309
*318 i_DP_i_MULTIPLIER_A1_mult_28_n308
*319 i_DP_i_MULTIPLIER_A1_mult_28_n307
*320 i_DP_i_MULTIPLIER_A1_mult_28_n306
*321 i_DP_i_MULTIPLIER_A1_mult_28_n305
*322 i_DP_i_MULTIPLIER_A1_mult_28_n304
*323 i_DP_i_MULTIPLIER_A1_mult_28_n303
*324 i_DP_i_MULTIPLIER_A1_mult_28_n302
*325 i_DP_i_MULTIPLIER_A1_mult_28_n301
*326 i_DP_i_MULTIPLIER_A1_mult_28_n300
*327 i_DP_i_MULTIPLIER_A1_mult_28_n299
*328 i_DP_i_MULTIPLIER_A1_mult_28_n298
*329 i_DP_i_MULTIPLIER_A1_mult_28_n297
*330 i_DP_i_MULTIPLIER_A1_mult_28_n296
*331 i_DP_i_MULTIPLIER_A1_mult_28_n295
*332 i_DP_i_MULTIPLIER_A1_mult_28_n294
*333 i_DP_i_MULTIPLIER_A1_mult_28_n293
*334 i_DP_i_MULTIPLIER_A1_mult_28_n292
*335 i_DP_i_MULTIPLIER_A1_mult_28_n291
*336 i_DP_i_MULTIPLIER_A1_mult_28_n290
*337 i_DP_i_MULTIPLIER_A1_mult_28_n289
*338 i_DP_i_MULTIPLIER_A1_mult_28_n288
*339 i_DP_i_MULTIPLIER_A1_mult_28_n287
*340 i_DP_i_MULTIPLIER_A1_mult_28_n286
*341 i_DP_i_MULTIPLIER_A1_mult_28_n285
*342 i_DP_i_MULTIPLIER_A1_mult_28_n284
*343 i_DP_i_MULTIPLIER_A1_mult_28_n283
*344 i_DP_i_MULTIPLIER_A1_mult_28_n282
*345 i_DP_i_MULTIPLIER_A1_mult_28_n281
*346 i_DP_i_MULTIPLIER_A1_mult_28_n280
*347 i_DP_i_MULTIPLIER_A1_mult_28_n279
*348 i_DP_i_MULTIPLIER_A1_mult_28_n278
*349 i_DP_i_MULTIPLIER_A1_mult_28_n277
*350 i_DP_i_MULTIPLIER_A1_mult_28_n276
*351 i_DP_i_MULTIPLIER_A1_mult_28_n275
*352 i_DP_i_MULTIPLIER_A1_mult_28_n274
*353 i_DP_i_MULTIPLIER_A1_mult_28_n273
*354 i_DP_i_MULTIPLIER_A1_mult_28_n272
*355 i_DP_i_MULTIPLIER_A1_mult_28_n271
*356 i_DP_i_MULTIPLIER_A1_mult_28_n270
*357 i_DP_i_MULTIPLIER_A1_mult_28_n269
*358 i_DP_i_MULTIPLIER_A1_mult_28_n268
*359 i_DP_i_MULTIPLIER_A1_mult_28_n267
*360 i_DP_i_MULTIPLIER_A1_mult_28_n266
*361 i_DP_i_MULTIPLIER_A1_mult_28_n265
*362 i_DP_i_MULTIPLIER_A1_mult_28_n264
*363 i_DP_i_MULTIPLIER_A1_mult_28_n263
*364 i_DP_i_MULTIPLIER_A1_mult_28_n262
*365 i_DP_i_MULTIPLIER_A1_mult_28_n261
*366 i_DP_i_MULTIPLIER_A1_mult_28_n260
*367 i_DP_i_MULTIPLIER_A1_mult_28_n259
*368 i_DP_i_MULTIPLIER_A1_mult_28_n258
*369 i_DP_i_MULTIPLIER_A1_mult_28_n257
*370 i_DP_i_MULTIPLIER_A1_mult_28_n256
*371 i_DP_i_MULTIPLIER_A1_mult_28_n255
*372 i_DP_i_MULTIPLIER_A1_mult_28_n254
*373 i_DP_i_MULTIPLIER_A1_mult_28_n253
*374 i_DP_i_MULTIPLIER_A1_mult_28_n252
*375 i_DP_i_MULTIPLIER_A1_mult_28_n251
*376 i_DP_i_MULTIPLIER_A1_mult_28_n250
*377 i_DP_i_MULTIPLIER_A1_mult_28_n249
*378 i_DP_i_MULTIPLIER_A1_mult_28_n248
*379 i_DP_i_MULTIPLIER_A1_mult_28_n247
*380 i_DP_i_MULTIPLIER_A1_mult_28_n246
*381 i_DP_i_MULTIPLIER_A1_mult_28_n245
*382 i_DP_i_MULTIPLIER_A1_mult_28_n244
*383 i_DP_i_MULTIPLIER_A1_mult_28_n243
*384 i_DP_i_MULTIPLIER_A1_mult_28_n242
*385 i_DP_i_MULTIPLIER_A1_mult_28_n241
*386 i_DP_i_MULTIPLIER_A1_mult_28_n240
*387 i_DP_i_MULTIPLIER_A1_mult_28_n239
*388 i_DP_i_MULTIPLIER_A1_mult_28_n238
*389 i_DP_i_MULTIPLIER_A1_mult_28_n237
*390 i_DP_i_MULTIPLIER_A1_mult_28_n236
*391 i_DP_i_MULTIPLIER_A1_mult_28_n235
*392 i_DP_i_MULTIPLIER_A1_mult_28_n234
*393 i_DP_i_MULTIPLIER_A1_mult_28_n233
*394 i_DP_i_MULTIPLIER_A1_mult_28_n232
*395 i_DP_i_MULTIPLIER_A1_mult_28_n231
*396 i_DP_i_MULTIPLIER_A1_mult_28_n230
*397 i_DP_i_MULTIPLIER_A1_mult_28_n229
*398 i_DP_i_MULTIPLIER_A1_mult_28_n228
*399 i_DP_i_MULTIPLIER_A1_mult_28_n227
*400 i_DP_i_MULTIPLIER_A1_mult_28_n226
*401 i_DP_i_MULTIPLIER_A1_mult_28_n225
*402 i_DP_i_MULTIPLIER_A1_mult_28_n224
*403 i_DP_i_MULTIPLIER_A1_mult_28_n223
*404 i_DP_i_MULTIPLIER_A1_mult_28_n222
*405 i_DP_i_MULTIPLIER_A1_mult_28_n221
*406 i_DP_i_MULTIPLIER_A1_mult_28_n220
*407 i_DP_i_MULTIPLIER_A1_mult_28_n219
*408 i_DP_i_MULTIPLIER_A1_mult_28_n218
*409 i_DP_i_MULTIPLIER_A1_mult_28_n217
*410 i_DP_i_MULTIPLIER_A1_mult_28_n216
*411 i_DP_i_MULTIPLIER_A1_mult_28_n215
*412 i_DP_i_MULTIPLIER_A1_mult_28_n214
*413 i_DP_i_MULTIPLIER_A1_mult_28_n213
*414 i_DP_i_MULTIPLIER_A1_mult_28_n212
*415 i_DP_i_MULTIPLIER_A1_mult_28_n211
*416 i_DP_i_MULTIPLIER_A1_mult_28_n210
*417 i_DP_i_MULTIPLIER_A1_mult_28_n207
*418 i_DP_i_MULTIPLIER_A1_mult_28_n205
*419 i_DP_i_MULTIPLIER_A1_mult_28_n204
*420 i_DP_i_MULTIPLIER_A1_mult_28_n202
*421 i_DP_i_MULTIPLIER_A1_mult_28_n201
*422 i_DP_i_MULTIPLIER_A1_mult_28_n198
*423 i_DP_i_MULTIPLIER_A1_mult_28_n196
*424 i_DP_i_MULTIPLIER_A1_mult_28_n195
*425 i_DP_i_MULTIPLIER_A1_mult_28_n194
*426 i_DP_i_MULTIPLIER_A1_mult_28_n193
*427 i_DP_i_MULTIPLIER_A1_mult_28_n192
*428 i_DP_i_MULTIPLIER_A1_mult_28_n191
*429 i_DP_i_MULTIPLIER_A1_mult_28_n190
*430 i_DP_i_MULTIPLIER_A1_mult_28_n189
*431 i_DP_i_MULTIPLIER_A1_mult_28_n188
*432 i_DP_i_MULTIPLIER_A1_mult_28_n187
*433 i_DP_i_MULTIPLIER_A1_mult_28_n186
*434 i_DP_i_MULTIPLIER_A1_mult_28_n185
*435 i_DP_i_MULTIPLIER_A1_mult_28_n184
*436 i_DP_i_MULTIPLIER_A1_mult_28_n183
*437 i_DP_i_MULTIPLIER_A1_mult_28_n182
*438 i_DP_i_MULTIPLIER_A1_mult_28_n181
*439 i_DP_i_MULTIPLIER_A1_mult_28_n180
*440 i_DP_i_MULTIPLIER_A1_mult_28_n179
*441 i_DP_i_MULTIPLIER_A1_mult_28_n178
*442 i_DP_i_MULTIPLIER_A1_mult_28_n177
*443 i_DP_i_MULTIPLIER_A1_mult_28_n176
*444 i_DP_i_MULTIPLIER_A1_mult_28_n175
*445 i_DP_i_MULTIPLIER_A1_mult_28_n174
*446 i_DP_i_MULTIPLIER_A1_mult_28_n173
*447 i_DP_i_MULTIPLIER_A1_mult_28_n172
*448 i_DP_i_MULTIPLIER_A1_mult_28_n171
*449 i_DP_i_MULTIPLIER_A1_mult_28_n170
*450 i_DP_i_MULTIPLIER_A1_mult_28_n169
*451 i_DP_i_MULTIPLIER_A1_mult_28_n168
*452 i_DP_i_MULTIPLIER_A1_mult_28_n167
*453 i_DP_i_MULTIPLIER_A1_mult_28_n166
*454 i_DP_i_MULTIPLIER_A1_mult_28_n165
*455 i_DP_i_MULTIPLIER_A1_mult_28_n164
*456 i_DP_i_MULTIPLIER_A1_mult_28_n163
*457 i_DP_i_MULTIPLIER_A1_mult_28_n162
*458 i_DP_i_MULTIPLIER_A1_mult_28_n161
*459 i_DP_i_MULTIPLIER_A1_mult_28_n160
*460 i_DP_i_MULTIPLIER_A1_mult_28_n159
*461 i_DP_i_MULTIPLIER_A1_mult_28_n158
*462 i_DP_i_MULTIPLIER_A1_mult_28_n157
*463 i_DP_i_MULTIPLIER_A1_mult_28_n156
*464 i_DP_i_MULTIPLIER_A1_mult_28_n155
*465 i_DP_i_MULTIPLIER_A1_mult_28_n154
*466 i_DP_i_MULTIPLIER_A1_mult_28_n153
*467 i_DP_i_MULTIPLIER_A1_mult_28_n152
*468 i_DP_i_MULTIPLIER_A1_mult_28_n151
*469 i_DP_i_MULTIPLIER_A1_mult_28_n150
*470 i_DP_i_MULTIPLIER_A1_mult_28_n149
*471 i_DP_i_MULTIPLIER_A1_mult_28_n148
*472 i_DP_i_MULTIPLIER_A1_mult_28_n147
*473 i_DP_i_MULTIPLIER_A1_mult_28_n146
*474 i_DP_i_MULTIPLIER_A1_mult_28_n145
*475 i_DP_i_MULTIPLIER_A1_mult_28_n144
*476 i_DP_i_MULTIPLIER_A1_mult_28_n143
*477 i_DP_i_MULTIPLIER_A1_mult_28_n142
*478 i_DP_i_MULTIPLIER_A1_mult_28_n141
*479 i_DP_i_MULTIPLIER_A1_mult_28_n140
*480 i_DP_i_MULTIPLIER_A1_mult_28_n139
*481 i_DP_i_MULTIPLIER_A1_mult_28_n138
*482 i_DP_i_MULTIPLIER_A1_mult_28_n137
*483 i_DP_i_MULTIPLIER_A1_mult_28_n136
*484 i_DP_i_MULTIPLIER_A1_mult_28_n135
*485 i_DP_i_MULTIPLIER_A1_mult_28_n134
*486 i_DP_i_MULTIPLIER_A1_mult_28_n133
*487 i_DP_i_MULTIPLIER_A1_mult_28_n132
*488 i_DP_i_MULTIPLIER_A1_mult_28_n131
*489 i_DP_i_MULTIPLIER_A1_mult_28_n130
*490 i_DP_i_MULTIPLIER_A1_mult_28_n129
*491 i_DP_i_MULTIPLIER_A1_mult_28_n128
*492 i_DP_i_MULTIPLIER_A1_mult_28_n127
*493 i_DP_i_MULTIPLIER_A1_mult_28_n126
*494 i_DP_i_MULTIPLIER_A1_mult_28_n125
*495 i_DP_i_MULTIPLIER_A1_mult_28_n124
*496 i_DP_i_MULTIPLIER_A1_mult_28_n123
*497 i_DP_i_MULTIPLIER_A1_mult_28_n121
*498 i_DP_i_MULTIPLIER_A1_mult_28_n116
*499 i_DP_i_MULTIPLIER_A1_mult_28_n112
*500 i_DP_i_MULTIPLIER_A1_mult_28_n111
*501 i_DP_i_MULTIPLIER_A1_mult_28_n107
*502 i_DP_i_MULTIPLIER_A1_mult_28_n106
*503 i_DP_i_MULTIPLIER_A1_mult_28_n105
*504 i_DP_i_MULTIPLIER_A1_mult_28_n103
*505 i_DP_i_MULTIPLIER_A1_mult_28_n102
*506 i_DP_i_MULTIPLIER_A1_mult_28_n101
*507 i_DP_i_MULTIPLIER_A1_mult_28_n100
*508 i_DP_i_MULTIPLIER_A1_mult_28_n98
*509 i_DP_i_MULTIPLIER_A1_mult_28_n96
*510 i_DP_i_MULTIPLIER_A1_mult_28_n95
*511 i_DP_i_MULTIPLIER_A1_mult_28_n94
*512 i_DP_i_MULTIPLIER_A1_mult_28_n92
*513 i_DP_i_MULTIPLIER_A1_mult_28_n90
*514 i_DP_i_MULTIPLIER_A1_mult_28_n89
*515 i_DP_i_MULTIPLIER_A1_mult_28_n88
*516 i_DP_i_MULTIPLIER_A1_mult_28_n87
*517 i_DP_i_MULTIPLIER_A1_mult_28_n86
*518 i_DP_i_MULTIPLIER_A1_mult_28_n82
*519 i_DP_i_MULTIPLIER_A1_mult_28_n81
*520 i_DP_i_MULTIPLIER_A1_mult_28_n80
*521 i_DP_i_MULTIPLIER_A1_mult_28_n79
*522 i_DP_i_MULTIPLIER_A1_mult_28_n78
*523 i_DP_i_MULTIPLIER_A1_mult_28_n77
*524 i_DP_i_MULTIPLIER_A1_mult_28_n76
*525 i_DP_i_MULTIPLIER_A1_mult_28_n75
*526 i_DP_i_MULTIPLIER_A1_mult_28_n74
*527 i_DP_i_MULTIPLIER_A1_mult_28_n73
*528 i_DP_i_MULTIPLIER_A1_mult_28_n72
*529 i_DP_i_MULTIPLIER_A1_mult_28_n71
*530 i_DP_i_MULTIPLIER_A1_mult_28_n70
*531 i_DP_i_MULTIPLIER_A1_mult_28_n69
*532 i_DP_i_MULTIPLIER_A1_mult_28_n68
*533 i_DP_i_MULTIPLIER_A1_mult_28_n67
*534 i_DP_i_MULTIPLIER_A1_mult_28_n66
*535 i_DP_i_MULTIPLIER_A1_mult_28_n65
*536 i_DP_i_MULTIPLIER_A1_mult_28_n64
*537 i_DP_i_MULTIPLIER_A1_mult_28_n63
*538 i_DP_i_MULTIPLIER_A1_mult_28_n62
*539 i_DP_i_MULTIPLIER_A1_mult_28_n59
*540 i_DP_i_MULTIPLIER_A1_mult_28_n57
*541 i_DP_i_MULTIPLIER_A1_mult_28_n56
*542 i_DP_i_MULTIPLIER_A1_mult_28_n55
*543 i_DP_i_MULTIPLIER_A1_mult_28_n54
*544 i_DP_i_MULTIPLIER_A1_mult_28_n51
*545 i_DP_i_MULTIPLIER_A1_mult_28_n50
*546 i_DP_i_MULTIPLIER_A1_mult_28_n49
*547 i_DP_i_MULTIPLIER_A1_mult_28_n48
*548 i_DP_i_MULTIPLIER_A1_mult_28_n47
*549 i_DP_i_MULTIPLIER_A1_mult_28_n46
*550 i_DP_i_MULTIPLIER_A1_mult_28_n45
*551 i_DP_i_MULTIPLIER_A1_mult_28_n44
*552 i_DP_i_MULTIPLIER_A1_mult_28_n43
*553 i_DP_i_MULTIPLIER_A1_mult_28_n42
*554 i_DP_i_MULTIPLIER_A1_mult_28_n41
*555 i_DP_i_MULTIPLIER_A1_mult_28_n40
*556 i_DP_i_MULTIPLIER_A1_mult_28_n38
*557 i_DP_i_MULTIPLIER_A1_mult_28_n36
*558 i_DP_i_MULTIPLIER_A1_mult_28_n35
*559 i_DP_i_MULTIPLIER_A1_mult_28_n33
*560 i_DP_i_MULTIPLIER_A1_mult_28_n31
*561 i_DP_i_MULTIPLIER_A1_mult_28_n30
*562 i_DP_i_MULTIPLIER_A1_mult_28_n29
*563 i_DP_i_MULTIPLIER_A1_mult_28_n28
*564 i_DP_i_MULTIPLIER_A1_mult_28_n27
*565 i_DP_i_MULTIPLIER_A1_mult_28_n26
*566 i_DP_i_MULTIPLIER_A1_mult_28_n25
*567 i_DP_i_MULTIPLIER_A1_mult_28_n24
*568 i_DP_i_MULTIPLIER_A1_mult_28_n23
*569 i_DP_i_MULTIPLIER_A1_mult_28_n22
*570 i_DP_i_MULTIPLIER_A1_mult_28_n21
*571 i_DP_i_MULTIPLIER_A1_mult_28_n20
*572 i_DP_i_MULTIPLIER_A1_mult_28_n19
*573 i_DP_i_MULTIPLIER_A1_mult_28_n18
*574 i_DP_i_MULTIPLIER_A1_mult_28_n16
*575 i_DP_i_MULTIPLIER_A1_mult_28_n15
*576 i_DP_i_MULTIPLIER_A1_mult_28_n14
*577 i_DP_i_MULTIPLIER_A1_mult_28_n13
*578 i_DP_i_MULTIPLIER_A1_mult_28_n12
*579 i_DP_i_MULTIPLIER_A1_mult_28_n11
*580 i_DP_i_MULTIPLIER_A1_mult_28_n10
*581 i_DP_i_MULTIPLIER_A1_mult_28_n9
*582 i_DP_i_MULTIPLIER_A1_mult_28_n8
*583 i_DP_i_MULTIPLIER_A1_mult_28_n4
*584 i_DP_i_MULTIPLIER_A1_mult_28_n2
*585 i_DP_i_MULTIPLIER_A1_mult_28_n1
*586 i_DP_i_MULTIPLIER_A2_MULTIPLIER_OUT_P_0_
*587 i_DP_i_MULTIPLIER_A2_MULTIPLIER_OUT_P_1_
*588 i_DP_i_MULTIPLIER_A2_MULTIPLIER_OUT_P_2_
*589 i_DP_i_MULTIPLIER_A2_MULTIPLIER_OUT_P_3_
*590 i_DP_i_MULTIPLIER_A2_MULTIPLIER_OUT_P_4_
*591 i_DP_i_MULTIPLIER_A2_MULTIPLIER_OUT_P_5_
*592 i_DP_i_MULTIPLIER_A2_MULTIPLIER_OUT_P_6_
*593 i_DP_i_MULTIPLIER_A2_MULTIPLIER_OUT_P_7_
*594 i_DP_i_MULTIPLIER_A2_MULTIPLIER_OUT_P_8_
*595 i_DP_i_MULTIPLIER_A2_MULTIPLIER_OUT_P_9_
*596 i_DP_i_MULTIPLIER_A2_MULTIPLIER_OUT_P_18_
*597 i_DP_i_MULTIPLIER_A2_MULTIPLIER_OUT_P_19_
*598 i_DP_i_MULTIPLIER_A2_mult_28_n503
*599 i_DP_i_MULTIPLIER_A2_mult_28_n502
*600 i_DP_i_MULTIPLIER_A2_mult_28_n501
*601 i_DP_i_MULTIPLIER_A2_mult_28_n500
*602 i_DP_i_MULTIPLIER_A2_mult_28_n499
*603 i_DP_i_MULTIPLIER_A2_mult_28_n498
*604 i_DP_i_MULTIPLIER_A2_mult_28_n497
*605 i_DP_i_MULTIPLIER_A2_mult_28_n496
*606 i_DP_i_MULTIPLIER_A2_mult_28_n494
*607 i_DP_i_MULTIPLIER_A2_mult_28_n487
*608 i_DP_i_MULTIPLIER_A2_mult_28_n486
*609 i_DP_i_MULTIPLIER_A2_mult_28_n485
*610 i_DP_i_MULTIPLIER_A2_mult_28_n484
*611 i_DP_i_MULTIPLIER_A2_mult_28_n483
*612 i_DP_i_MULTIPLIER_A2_mult_28_n482
*613 i_DP_i_MULTIPLIER_A2_mult_28_n481
*614 i_DP_i_MULTIPLIER_A2_mult_28_n480
*615 i_DP_i_MULTIPLIER_A2_mult_28_n479
*616 i_DP_i_MULTIPLIER_A2_mult_28_n478
*617 i_DP_i_MULTIPLIER_A2_mult_28_n477
*618 i_DP_i_MULTIPLIER_A2_mult_28_n474
*619 i_DP_i_MULTIPLIER_A2_mult_28_n473
*620 i_DP_i_MULTIPLIER_A2_mult_28_n472
*621 i_DP_i_MULTIPLIER_A2_mult_28_n471
*622 i_DP_i_MULTIPLIER_A2_mult_28_n468
*623 i_DP_i_MULTIPLIER_A2_mult_28_n466
*624 i_DP_i_MULTIPLIER_A2_mult_28_n465
*625 i_DP_i_MULTIPLIER_A2_mult_28_n464
*626 i_DP_i_MULTIPLIER_A2_mult_28_n463
*627 i_DP_i_MULTIPLIER_A2_mult_28_n462
*628 i_DP_i_MULTIPLIER_A2_mult_28_n461
*629 i_DP_i_MULTIPLIER_A2_mult_28_n459
*630 i_DP_i_MULTIPLIER_A2_mult_28_n454
*631 i_DP_i_MULTIPLIER_A2_mult_28_n451
*632 i_DP_i_MULTIPLIER_A2_mult_28_n449
*633 i_DP_i_MULTIPLIER_A2_mult_28_n448
*634 i_DP_i_MULTIPLIER_A2_mult_28_n447
*635 i_DP_i_MULTIPLIER_A2_mult_28_n446
*636 i_DP_i_MULTIPLIER_A2_mult_28_n444
*637 i_DP_i_MULTIPLIER_A2_mult_28_n442
*638 i_DP_i_MULTIPLIER_A2_mult_28_n441
*639 i_DP_i_MULTIPLIER_A2_mult_28_n437
*640 i_DP_i_MULTIPLIER_A2_mult_28_n436
*641 i_DP_i_MULTIPLIER_A2_mult_28_n434
*642 i_DP_i_MULTIPLIER_A2_mult_28_n432
*643 i_DP_i_MULTIPLIER_A2_mult_28_n424
*644 i_DP_i_MULTIPLIER_A2_mult_28_n423
*645 i_DP_i_MULTIPLIER_A2_mult_28_n420
*646 i_DP_i_MULTIPLIER_A2_mult_28_n418
*647 i_DP_i_MULTIPLIER_A2_mult_28_n416
*648 i_DP_i_MULTIPLIER_A2_mult_28_n413
*649 i_DP_i_MULTIPLIER_A2_mult_28_n343
*650 i_DP_i_MULTIPLIER_A2_mult_28_n342
*651 i_DP_i_MULTIPLIER_A2_mult_28_n341
*652 i_DP_i_MULTIPLIER_A2_mult_28_n340
*653 i_DP_i_MULTIPLIER_A2_mult_28_n339
*654 i_DP_i_MULTIPLIER_A2_mult_28_n338
*655 i_DP_i_MULTIPLIER_A2_mult_28_n337
*656 i_DP_i_MULTIPLIER_A2_mult_28_n336
*657 i_DP_i_MULTIPLIER_A2_mult_28_n335
*658 i_DP_i_MULTIPLIER_A2_mult_28_n330
*659 i_DP_i_MULTIPLIER_A2_mult_28_n319
*660 i_DP_i_MULTIPLIER_A2_mult_28_n318
*661 i_DP_i_MULTIPLIER_A2_mult_28_n317
*662 i_DP_i_MULTIPLIER_A2_mult_28_n316
*663 i_DP_i_MULTIPLIER_A2_mult_28_n315
*664 i_DP_i_MULTIPLIER_A2_mult_28_n314
*665 i_DP_i_MULTIPLIER_A2_mult_28_n313
*666 i_DP_i_MULTIPLIER_A2_mult_28_n312
*667 i_DP_i_MULTIPLIER_A2_mult_28_n311
*668 i_DP_i_MULTIPLIER_A2_mult_28_n310
*669 i_DP_i_MULTIPLIER_A2_mult_28_n309
*670 i_DP_i_MULTIPLIER_A2_mult_28_n308
*671 i_DP_i_MULTIPLIER_A2_mult_28_n307
*672 i_DP_i_MULTIPLIER_A2_mult_28_n306
*673 i_DP_i_MULTIPLIER_A2_mult_28_n305
*674 i_DP_i_MULTIPLIER_A2_mult_28_n304
*675 i_DP_i_MULTIPLIER_A2_mult_28_n303
*676 i_DP_i_MULTIPLIER_A2_mult_28_n302
*677 i_DP_i_MULTIPLIER_A2_mult_28_n301
*678 i_DP_i_MULTIPLIER_A2_mult_28_n300
*679 i_DP_i_MULTIPLIER_A2_mult_28_n299
*680 i_DP_i_MULTIPLIER_A2_mult_28_n298
*681 i_DP_i_MULTIPLIER_A2_mult_28_n297
*682 i_DP_i_MULTIPLIER_A2_mult_28_n296
*683 i_DP_i_MULTIPLIER_A2_mult_28_n295
*684 i_DP_i_MULTIPLIER_A2_mult_28_n294
*685 i_DP_i_MULTIPLIER_A2_mult_28_n293
*686 i_DP_i_MULTIPLIER_A2_mult_28_n292
*687 i_DP_i_MULTIPLIER_A2_mult_28_n291
*688 i_DP_i_MULTIPLIER_A2_mult_28_n290
*689 i_DP_i_MULTIPLIER_A2_mult_28_n289
*690 i_DP_i_MULTIPLIER_A2_mult_28_n288
*691 i_DP_i_MULTIPLIER_A2_mult_28_n287
*692 i_DP_i_MULTIPLIER_A2_mult_28_n286
*693 i_DP_i_MULTIPLIER_A2_mult_28_n285
*694 i_DP_i_MULTIPLIER_A2_mult_28_n284
*695 i_DP_i_MULTIPLIER_A2_mult_28_n283
*696 i_DP_i_MULTIPLIER_A2_mult_28_n282
*697 i_DP_i_MULTIPLIER_A2_mult_28_n281
*698 i_DP_i_MULTIPLIER_A2_mult_28_n280
*699 i_DP_i_MULTIPLIER_A2_mult_28_n279
*700 i_DP_i_MULTIPLIER_A2_mult_28_n278
*701 i_DP_i_MULTIPLIER_A2_mult_28_n277
*702 i_DP_i_MULTIPLIER_A2_mult_28_n276
*703 i_DP_i_MULTIPLIER_A2_mult_28_n275
*704 i_DP_i_MULTIPLIER_A2_mult_28_n274
*705 i_DP_i_MULTIPLIER_A2_mult_28_n273
*706 i_DP_i_MULTIPLIER_A2_mult_28_n272
*707 i_DP_i_MULTIPLIER_A2_mult_28_n271
*708 i_DP_i_MULTIPLIER_A2_mult_28_n270
*709 i_DP_i_MULTIPLIER_A2_mult_28_n269
*710 i_DP_i_MULTIPLIER_A2_mult_28_n268
*711 i_DP_i_MULTIPLIER_A2_mult_28_n267
*712 i_DP_i_MULTIPLIER_A2_mult_28_n266
*713 i_DP_i_MULTIPLIER_A2_mult_28_n265
*714 i_DP_i_MULTIPLIER_A2_mult_28_n264
*715 i_DP_i_MULTIPLIER_A2_mult_28_n263
*716 i_DP_i_MULTIPLIER_A2_mult_28_n262
*717 i_DP_i_MULTIPLIER_A2_mult_28_n261
*718 i_DP_i_MULTIPLIER_A2_mult_28_n260
*719 i_DP_i_MULTIPLIER_A2_mult_28_n259
*720 i_DP_i_MULTIPLIER_A2_mult_28_n258
*721 i_DP_i_MULTIPLIER_A2_mult_28_n257
*722 i_DP_i_MULTIPLIER_A2_mult_28_n256
*723 i_DP_i_MULTIPLIER_A2_mult_28_n255
*724 i_DP_i_MULTIPLIER_A2_mult_28_n254
*725 i_DP_i_MULTIPLIER_A2_mult_28_n253
*726 i_DP_i_MULTIPLIER_A2_mult_28_n252
*727 i_DP_i_MULTIPLIER_A2_mult_28_n251
*728 i_DP_i_MULTIPLIER_A2_mult_28_n250
*729 i_DP_i_MULTIPLIER_A2_mult_28_n249
*730 i_DP_i_MULTIPLIER_A2_mult_28_n248
*731 i_DP_i_MULTIPLIER_A2_mult_28_n247
*732 i_DP_i_MULTIPLIER_A2_mult_28_n246
*733 i_DP_i_MULTIPLIER_A2_mult_28_n245
*734 i_DP_i_MULTIPLIER_A2_mult_28_n244
*735 i_DP_i_MULTIPLIER_A2_mult_28_n243
*736 i_DP_i_MULTIPLIER_A2_mult_28_n242
*737 i_DP_i_MULTIPLIER_A2_mult_28_n241
*738 i_DP_i_MULTIPLIER_A2_mult_28_n240
*739 i_DP_i_MULTIPLIER_A2_mult_28_n239
*740 i_DP_i_MULTIPLIER_A2_mult_28_n238
*741 i_DP_i_MULTIPLIER_A2_mult_28_n237
*742 i_DP_i_MULTIPLIER_A2_mult_28_n236
*743 i_DP_i_MULTIPLIER_A2_mult_28_n235
*744 i_DP_i_MULTIPLIER_A2_mult_28_n234
*745 i_DP_i_MULTIPLIER_A2_mult_28_n233
*746 i_DP_i_MULTIPLIER_A2_mult_28_n232
*747 i_DP_i_MULTIPLIER_A2_mult_28_n231
*748 i_DP_i_MULTIPLIER_A2_mult_28_n230
*749 i_DP_i_MULTIPLIER_A2_mult_28_n229
*750 i_DP_i_MULTIPLIER_A2_mult_28_n228
*751 i_DP_i_MULTIPLIER_A2_mult_28_n227
*752 i_DP_i_MULTIPLIER_A2_mult_28_n226
*753 i_DP_i_MULTIPLIER_A2_mult_28_n225
*754 i_DP_i_MULTIPLIER_A2_mult_28_n224
*755 i_DP_i_MULTIPLIER_A2_mult_28_n223
*756 i_DP_i_MULTIPLIER_A2_mult_28_n222
*757 i_DP_i_MULTIPLIER_A2_mult_28_n221
*758 i_DP_i_MULTIPLIER_A2_mult_28_n220
*759 i_DP_i_MULTIPLIER_A2_mult_28_n219
*760 i_DP_i_MULTIPLIER_A2_mult_28_n218
*761 i_DP_i_MULTIPLIER_A2_mult_28_n217
*762 i_DP_i_MULTIPLIER_A2_mult_28_n216
*763 i_DP_i_MULTIPLIER_A2_mult_28_n215
*764 i_DP_i_MULTIPLIER_A2_mult_28_n214
*765 i_DP_i_MULTIPLIER_A2_mult_28_n213
*766 i_DP_i_MULTIPLIER_A2_mult_28_n212
*767 i_DP_i_MULTIPLIER_A2_mult_28_n211
*768 i_DP_i_MULTIPLIER_A2_mult_28_n210
*769 i_DP_i_MULTIPLIER_A2_mult_28_n207
*770 i_DP_i_MULTIPLIER_A2_mult_28_n205
*771 i_DP_i_MULTIPLIER_A2_mult_28_n204
*772 i_DP_i_MULTIPLIER_A2_mult_28_n202
*773 i_DP_i_MULTIPLIER_A2_mult_28_n201
*774 i_DP_i_MULTIPLIER_A2_mult_28_n199
*775 i_DP_i_MULTIPLIER_A2_mult_28_n198
*776 i_DP_i_MULTIPLIER_A2_mult_28_n196
*777 i_DP_i_MULTIPLIER_A2_mult_28_n195
*778 i_DP_i_MULTIPLIER_A2_mult_28_n194
*779 i_DP_i_MULTIPLIER_A2_mult_28_n192
*780 i_DP_i_MULTIPLIER_A2_mult_28_n191
*781 i_DP_i_MULTIPLIER_A2_mult_28_n190
*782 i_DP_i_MULTIPLIER_A2_mult_28_n189
*783 i_DP_i_MULTIPLIER_A2_mult_28_n188
*784 i_DP_i_MULTIPLIER_A2_mult_28_n187
*785 i_DP_i_MULTIPLIER_A2_mult_28_n186
*786 i_DP_i_MULTIPLIER_A2_mult_28_n185
*787 i_DP_i_MULTIPLIER_A2_mult_28_n184
*788 i_DP_i_MULTIPLIER_A2_mult_28_n183
*789 i_DP_i_MULTIPLIER_A2_mult_28_n182
*790 i_DP_i_MULTIPLIER_A2_mult_28_n181
*791 i_DP_i_MULTIPLIER_A2_mult_28_n180
*792 i_DP_i_MULTIPLIER_A2_mult_28_n179
*793 i_DP_i_MULTIPLIER_A2_mult_28_n178
*794 i_DP_i_MULTIPLIER_A2_mult_28_n177
*795 i_DP_i_MULTIPLIER_A2_mult_28_n176
*796 i_DP_i_MULTIPLIER_A2_mult_28_n175
*797 i_DP_i_MULTIPLIER_A2_mult_28_n174
*798 i_DP_i_MULTIPLIER_A2_mult_28_n173
*799 i_DP_i_MULTIPLIER_A2_mult_28_n172
*800 i_DP_i_MULTIPLIER_A2_mult_28_n171
*801 i_DP_i_MULTIPLIER_A2_mult_28_n170
*802 i_DP_i_MULTIPLIER_A2_mult_28_n169
*803 i_DP_i_MULTIPLIER_A2_mult_28_n168
*804 i_DP_i_MULTIPLIER_A2_mult_28_n167
*805 i_DP_i_MULTIPLIER_A2_mult_28_n166
*806 i_DP_i_MULTIPLIER_A2_mult_28_n165
*807 i_DP_i_MULTIPLIER_A2_mult_28_n164
*808 i_DP_i_MULTIPLIER_A2_mult_28_n163
*809 i_DP_i_MULTIPLIER_A2_mult_28_n162
*810 i_DP_i_MULTIPLIER_A2_mult_28_n161
*811 i_DP_i_MULTIPLIER_A2_mult_28_n160
*812 i_DP_i_MULTIPLIER_A2_mult_28_n159
*813 i_DP_i_MULTIPLIER_A2_mult_28_n158
*814 i_DP_i_MULTIPLIER_A2_mult_28_n157
*815 i_DP_i_MULTIPLIER_A2_mult_28_n156
*816 i_DP_i_MULTIPLIER_A2_mult_28_n155
*817 i_DP_i_MULTIPLIER_A2_mult_28_n154
*818 i_DP_i_MULTIPLIER_A2_mult_28_n153
*819 i_DP_i_MULTIPLIER_A2_mult_28_n152
*820 i_DP_i_MULTIPLIER_A2_mult_28_n151
*821 i_DP_i_MULTIPLIER_A2_mult_28_n150
*822 i_DP_i_MULTIPLIER_A2_mult_28_n149
*823 i_DP_i_MULTIPLIER_A2_mult_28_n148
*824 i_DP_i_MULTIPLIER_A2_mult_28_n147
*825 i_DP_i_MULTIPLIER_A2_mult_28_n146
*826 i_DP_i_MULTIPLIER_A2_mult_28_n145
*827 i_DP_i_MULTIPLIER_A2_mult_28_n144
*828 i_DP_i_MULTIPLIER_A2_mult_28_n143
*829 i_DP_i_MULTIPLIER_A2_mult_28_n142
*830 i_DP_i_MULTIPLIER_A2_mult_28_n141
*831 i_DP_i_MULTIPLIER_A2_mult_28_n140
*832 i_DP_i_MULTIPLIER_A2_mult_28_n139
*833 i_DP_i_MULTIPLIER_A2_mult_28_n138
*834 i_DP_i_MULTIPLIER_A2_mult_28_n137
*835 i_DP_i_MULTIPLIER_A2_mult_28_n136
*836 i_DP_i_MULTIPLIER_A2_mult_28_n135
*837 i_DP_i_MULTIPLIER_A2_mult_28_n134
*838 i_DP_i_MULTIPLIER_A2_mult_28_n133
*839 i_DP_i_MULTIPLIER_A2_mult_28_n132
*840 i_DP_i_MULTIPLIER_A2_mult_28_n131
*841 i_DP_i_MULTIPLIER_A2_mult_28_n130
*842 i_DP_i_MULTIPLIER_A2_mult_28_n129
*843 i_DP_i_MULTIPLIER_A2_mult_28_n128
*844 i_DP_i_MULTIPLIER_A2_mult_28_n127
*845 i_DP_i_MULTIPLIER_A2_mult_28_n126
*846 i_DP_i_MULTIPLIER_A2_mult_28_n125
*847 i_DP_i_MULTIPLIER_A2_mult_28_n124
*848 i_DP_i_MULTIPLIER_A2_mult_28_n123
*849 i_DP_i_MULTIPLIER_A2_mult_28_n121
*850 i_DP_i_MULTIPLIER_A2_mult_28_n116
*851 i_DP_i_MULTIPLIER_A2_mult_28_n115
*852 i_DP_i_MULTIPLIER_A2_mult_28_n112
*853 i_DP_i_MULTIPLIER_A2_mult_28_n111
*854 i_DP_i_MULTIPLIER_A2_mult_28_n107