*SPEF "IEEE 1481-1998"
*DESIGN "IIR_1lookahead"
*DATE "Thu Oct 28 10:41:32 2021"
*VENDOR "Cadence Design Systems, Inc."
*PROGRAM "Innovus"
*VERSION "17.11-s080_1"
*DESIGN_FLOW "COUPLING C" "PIN_CAP NONE" "NAME_SCOPE LOCAL"
*DIVIDER /
*DELIMITER :
*BUS_DELIMITER []
*T_UNIT 1 NS
*C_UNIT 1 PF
*R_UNIT 1 OHM
*L_UNIT 1 HENRY

// MMMC spef file for corner 'my_rc'

*NAME_MAP

*1 FE_OFN22_i_DP_i_MULTIPLIER_C2_mult_28_n359
*2 FE_OFN21_i_DP_i_MULTIPLIER_C1_mult_28_n360
*3 FE_OFN20_i_DP_i_MULTIPLIER_C2_mult_28_n360
*4 FE_OFN19_i_DP_i_MULTIPLIER_C1_mult_28_n361
*5 FE_OFN18_i_DP_i_MULTIPLIER_C1_mult_28_n359
*6 FE_OFN17_RST_N
*7 FE_OFN16_RST_N
*8 FE_OFN15_RST_N
*9 FE_OFN14_i_DP_i_MULTIPLIER_C0_mult_28_n323
*10 FE_OFN13_i_DP_i_MULTIPLIER_B1_mult_28_n443
*11 FE_OFN12_i_DP_i_MULTIPLIER_B2_mult_28_n458
*12 FE_OFN11_i_DP_i_MULTIPLIER_B0_mult_28_n461
*13 FE_OFN10_i_DP_i_MULTIPLIER_B1_mult_28_n450
*14 FE_OFN9_i_DP_i_REG_DEL_1_n11
*15 FE_OFN8_i_DP_i_MULTIPLIER_C0_mult_28_n324
*16 FE_OFN7_i_DP_i_MULTIPLIER_B0_mult_28_n358
*17 FE_OFN6_i_DP_i_MULTIPLIER_C0_mult_28_n325
*18 FE_OFN5_i_DP_i_MULTIPLIER_B2_mult_28_n358
*19 FE_OFN4_i_DP_i_MULTIPLIER_B2_mult_28_n359
*20 FE_OFN3_i_DP_i_MULTIPLIER_B1_mult_28_n361
*21 FE_OFN2_i_DP_i_MULTIPLIER_B2_mult_28_n360
*22 FE_OFN1_i_DP_i_MULTIPLIER_B0_mult_28_n360
*23 FE_OFN0_i_DP_i_MULTIPLIER_B0_mult_28_n359
*24 FE_DBTN2_i_DP_i_MULTIPLIER_C2_mult_28_n460
*25 FE_DBTN1_i_DP_i_MULTIPLIER_B0_mult_28_n87
*26 FE_DBTN0_i_DP_i_MULTIPLIER_B2_mult_28_n98
*27 DIN[8]
*28 DIN[7]
*29 DIN[6]
*30 DIN[5]
*31 DIN[4]
*32 DIN[3]
*33 DIN[2]
*34 DIN[1]
*35 DIN[0]
*36 C0[8]
*37 C0[7]
*38 C0[6]
*39 C0[5]
*40 C0[4]
*41 C0[3]
*42 C0[2]
*43 C0[1]
*44 C0[0]
*45 C1[8]
*46 C1[7]
*47 C1[6]
*48 C1[5]
*49 C1[4]
*50 C1[3]
*51 C1[2]
*52 C1[1]
*53 C1[0]
*54 C2[8]
*55 C2[7]
*56 C2[6]
*57 C2[5]
*58 C2[4]
*59 C2[3]
*60 C2[2]
*61 C2[1]
*62 C2[0]
*63 B0[8]
*64 B0[7]
*65 B0[6]
*66 B0[5]
*67 B0[4]
*68 B0[3]
*69 B0[2]
*70 B0[1]
*71 B0[0]
*72 B1[8]
*73 B1[7]
*74 B1[6]
*75 B1[5]
*76 B1[4]
*77 B1[3]
*78 B1[2]
*79 B1[1]
*80 B1[0]
*81 B2[8]
*82 B2[7]
*83 B2[6]
*84 B2[5]
*85 B2[4]
*86 B2[3]
*87 B2[2]
*88 B2[1]
*89 B2[0]
*90 DOUT[8]
*91 DOUT[7]
*92 DOUT[6]
*93 DOUT[5]
*94 DOUT[4]
*95 DOUT[3]
*96 DOUT[2]
*97 DOUT[1]
*98 DOUT[0]
*99 VIN
*100 CLK
*101 RST_N
*102 VOUT
*103 VIN_FROM_REGIN
*104 VIN_FROM_PIPE
*105 i_input_register_DIN_n9
*106 i_input_register_DIN_n7
*107 i_input_register_DIN_n6
*108 i_input_register_DIN_n5
*109 i_input_register_DIN_n3
*110 i_input_register_DIN_n2
*111 i_input_register_DIN_n27
*112 i_input_register_DIN_n26
*113 i_input_register_DIN_n25
*114 i_input_register_DIN_n24
*115 i_input_register_DIN_n23
*116 i_input_register_DIN_n22
*117 i_input_register_DIN_n21
*118 i_input_register_DIN_n20
*119 i_input_register_DIN_n19
*120 i_input_register_DIN_n18
*121 i_input_register_DIN_n17
*122 i_input_register_DIN_n16
*123 i_input_register_DIN_n15
*124 i_input_register_DIN_n14
*125 i_input_register_DIN_n13
*126 i_input_register_DIN_n12
*127 i_input_register_DIN_n11
*128 i_input_register_DIN_n10
*129 i_input_register_DIN_n30
*130 i_DP_i_MULTIPLIER_C0_MULTIPLIER_OUT_P_0_
*131 i_DP_i_MULTIPLIER_C0_MULTIPLIER_OUT_P_1_
*132 i_DP_i_MULTIPLIER_C0_MULTIPLIER_OUT_P_2_
*133 i_DP_i_MULTIPLIER_C0_MULTIPLIER_OUT_P_3_
*134 i_DP_i_MULTIPLIER_C0_MULTIPLIER_OUT_P_4_
*135 i_DP_i_MULTIPLIER_C0_MULTIPLIER_OUT_P_5_
*136 i_DP_i_MULTIPLIER_C0_MULTIPLIER_OUT_P_6_
*137 i_DP_i_MULTIPLIER_C0_MULTIPLIER_OUT_P_7_
*138 i_DP_i_MULTIPLIER_C0_MULTIPLIER_OUT_P_8_
*139 i_DP_i_MULTIPLIER_C0_MULTIPLIER_OUT_P_9_
*140 i_DP_i_MULTIPLIER_C0_MULTIPLIER_OUT_P_17_
*141 i_DP_i_MULTIPLIER_C0_mult_28_n452
*142 i_DP_i_MULTIPLIER_C0_mult_28_n451
*143 i_DP_i_MULTIPLIER_C0_mult_28_n450
*144 i_DP_i_MULTIPLIER_C0_mult_28_n449
*145 i_DP_i_MULTIPLIER_C0_mult_28_n448
*146 i_DP_i_MULTIPLIER_C0_mult_28_n447
*147 i_DP_i_MULTIPLIER_C0_mult_28_n439
*148 i_DP_i_MULTIPLIER_C0_mult_28_n438
*149 i_DP_i_MULTIPLIER_C0_mult_28_n437
*150 i_DP_i_MULTIPLIER_C0_mult_28_n436
*151 i_DP_i_MULTIPLIER_C0_mult_28_n435
*152 i_DP_i_MULTIPLIER_C0_mult_28_n434
*153 i_DP_i_MULTIPLIER_C0_mult_28_n433
*154 i_DP_i_MULTIPLIER_C0_mult_28_n432
*155 i_DP_i_MULTIPLIER_C0_mult_28_n431
*156 i_DP_i_MULTIPLIER_C0_mult_28_n430
*157 i_DP_i_MULTIPLIER_C0_mult_28_n429
*158 i_DP_i_MULTIPLIER_C0_mult_28_n428
*159 i_DP_i_MULTIPLIER_C0_mult_28_n420
*160 i_DP_i_MULTIPLIER_C0_mult_28_n419
*161 i_DP_i_MULTIPLIER_C0_mult_28_n418
*162 i_DP_i_MULTIPLIER_C0_mult_28_n417
*163 i_DP_i_MULTIPLIER_C0_mult_28_n412
*164 i_DP_i_MULTIPLIER_C0_mult_28_n411
*165 i_DP_i_MULTIPLIER_C0_mult_28_n408
*166 i_DP_i_MULTIPLIER_C0_mult_28_n405
*167 i_DP_i_MULTIPLIER_C0_mult_28_n404
*168 i_DP_i_MULTIPLIER_C0_mult_28_n402
*169 i_DP_i_MULTIPLIER_C0_mult_28_n393
*170 i_DP_i_MULTIPLIER_C0_mult_28_n392
*171 i_DP_i_MULTIPLIER_C0_mult_28_n391
*172 i_DP_i_MULTIPLIER_C0_mult_28_n388
*173 i_DP_i_MULTIPLIER_C0_mult_28_n346
*174 i_DP_i_MULTIPLIER_C0_mult_28_n330
*175 i_DP_i_MULTIPLIER_C0_mult_28_n325
*176 i_DP_i_MULTIPLIER_C0_mult_28_n324
*177 i_DP_i_MULTIPLIER_C0_mult_28_n323
*178 i_DP_i_MULTIPLIER_C0_mult_28_n322
*179 i_DP_i_MULTIPLIER_C0_mult_28_n321
*180 i_DP_i_MULTIPLIER_C0_mult_28_n320
*181 i_DP_i_MULTIPLIER_C0_mult_28_n319
*182 i_DP_i_MULTIPLIER_C0_mult_28_n318
*183 i_DP_i_MULTIPLIER_C0_mult_28_n313
*184 i_DP_i_MULTIPLIER_C0_mult_28_n302
*185 i_DP_i_MULTIPLIER_C0_mult_28_n301
*186 i_DP_i_MULTIPLIER_C0_mult_28_n300
*187 i_DP_i_MULTIPLIER_C0_mult_28_n299
*188 i_DP_i_MULTIPLIER_C0_mult_28_n298
*189 i_DP_i_MULTIPLIER_C0_mult_28_n297
*190 i_DP_i_MULTIPLIER_C0_mult_28_n296
*191 i_DP_i_MULTIPLIER_C0_mult_28_n295
*192 i_DP_i_MULTIPLIER_C0_mult_28_n294
*193 i_DP_i_MULTIPLIER_C0_mult_28_n293
*194 i_DP_i_MULTIPLIER_C0_mult_28_n292
*195 i_DP_i_MULTIPLIER_C0_mult_28_n291
*196 i_DP_i_MULTIPLIER_C0_mult_28_n290
*197 i_DP_i_MULTIPLIER_C0_mult_28_n289
*198 i_DP_i_MULTIPLIER_C0_mult_28_n288
*199 i_DP_i_MULTIPLIER_C0_mult_28_n287
*200 i_DP_i_MULTIPLIER_C0_mult_28_n286
*201 i_DP_i_MULTIPLIER_C0_mult_28_n285
*202 i_DP_i_MULTIPLIER_C0_mult_28_n284
*203 i_DP_i_MULTIPLIER_C0_mult_28_n283
*204 i_DP_i_MULTIPLIER_C0_mult_28_n282
*205 i_DP_i_MULTIPLIER_C0_mult_28_n281
*206 i_DP_i_MULTIPLIER_C0_mult_28_n280
*207 i_DP_i_MULTIPLIER_C0_mult_28_n279
*208 i_DP_i_MULTIPLIER_C0_mult_28_n278
*209 i_DP_i_MULTIPLIER_C0_mult_28_n277
*210 i_DP_i_MULTIPLIER_C0_mult_28_n276
*211 i_DP_i_MULTIPLIER_C0_mult_28_n275
*212 i_DP_i_MULTIPLIER_C0_mult_28_n274
*213 i_DP_i_MULTIPLIER_C0_mult_28_n273
*214 i_DP_i_MULTIPLIER_C0_mult_28_n272
*215 i_DP_i_MULTIPLIER_C0_mult_28_n271
*216 i_DP_i_MULTIPLIER_C0_mult_28_n270
*217 i_DP_i_MULTIPLIER_C0_mult_28_n269
*218 i_DP_i_MULTIPLIER_C0_mult_28_n268
*219 i_DP_i_MULTIPLIER_C0_mult_28_n267
*220 i_DP_i_MULTIPLIER_C0_mult_28_n266
*221 i_DP_i_MULTIPLIER_C0_mult_28_n265
*222 i_DP_i_MULTIPLIER_C0_mult_28_n264
*223 i_DP_i_MULTIPLIER_C0_mult_28_n263
*224 i_DP_i_MULTIPLIER_C0_mult_28_n262
*225 i_DP_i_MULTIPLIER_C0_mult_28_n260
*226 i_DP_i_MULTIPLIER_C0_mult_28_n259
*227 i_DP_i_MULTIPLIER_C0_mult_28_n258
*228 i_DP_i_MULTIPLIER_C0_mult_28_n257
*229 i_DP_i_MULTIPLIER_C0_mult_28_n256
*230 i_DP_i_MULTIPLIER_C0_mult_28_n255
*231 i_DP_i_MULTIPLIER_C0_mult_28_n254
*232 i_DP_i_MULTIPLIER_C0_mult_28_n253
*233 i_DP_i_MULTIPLIER_C0_mult_28_n252
*234 i_DP_i_MULTIPLIER_C0_mult_28_n251
*235 i_DP_i_MULTIPLIER_C0_mult_28_n250
*236 i_DP_i_MULTIPLIER_C0_mult_28_n249
*237 i_DP_i_MULTIPLIER_C0_mult_28_n248
*238 i_DP_i_MULTIPLIER_C0_mult_28_n247
*239 i_DP_i_MULTIPLIER_C0_mult_28_n246
*240 i_DP_i_MULTIPLIER_C0_mult_28_n245
*241 i_DP_i_MULTIPLIER_C0_mult_28_n244
*242 i_DP_i_MULTIPLIER_C0_mult_28_n243
*243 i_DP_i_MULTIPLIER_C0_mult_28_n242
*244 i_DP_i_MULTIPLIER_C0_mult_28_n241
*245 i_DP_i_MULTIPLIER_C0_mult_28_n240
*246 i_DP_i_MULTIPLIER_C0_mult_28_n239
*247 i_DP_i_MULTIPLIER_C0_mult_28_n238
*248 i_DP_i_MULTIPLIER_C0_mult_28_n237
*249 i_DP_i_MULTIPLIER_C0_mult_28_n236
*250 i_DP_i_MULTIPLIER_C0_mult_28_n235
*251 i_DP_i_MULTIPLIER_C0_mult_28_n234
*252 i_DP_i_MULTIPLIER_C0_mult_28_n233
*253 i_DP_i_MULTIPLIER_C0_mult_28_n232
*254 i_DP_i_MULTIPLIER_C0_mult_28_n231
*255 i_DP_i_MULTIPLIER_C0_mult_28_n230
*256 i_DP_i_MULTIPLIER_C0_mult_28_n229
*257 i_DP_i_MULTIPLIER_C0_mult_28_n228
*258 i_DP_i_MULTIPLIER_C0_mult_28_n227
*259 i_DP_i_MULTIPLIER_C0_mult_28_n226
*260 i_DP_i_MULTIPLIER_C0_mult_28_n225
*261 i_DP_i_MULTIPLIER_C0_mult_28_n224
*262 i_DP_i_MULTIPLIER_C0_mult_28_n223
*263 i_DP_i_MULTIPLIER_C0_mult_28_n222
*264 i_DP_i_MULTIPLIER_C0_mult_28_n221
*265 i_DP_i_MULTIPLIER_C0_mult_28_n220
*266 i_DP_i_MULTIPLIER_C0_mult_28_n219
*267 i_DP_i_MULTIPLIER_C0_mult_28_n218
*268 i_DP_i_MULTIPLIER_C0_mult_28_n217
*269 i_DP_i_MULTIPLIER_C0_mult_28_n216
*270 i_DP_i_MULTIPLIER_C0_mult_28_n215
*271 i_DP_i_MULTIPLIER_C0_mult_28_n214
*272 i_DP_i_MULTIPLIER_C0_mult_28_n213
*273 i_DP_i_MULTIPLIER_C0_mult_28_n212
*274 i_DP_i_MULTIPLIER_C0_mult_28_n211
*275 i_DP_i_MULTIPLIER_C0_mult_28_n210
*276 i_DP_i_MULTIPLIER_C0_mult_28_n209
*277 i_DP_i_MULTIPLIER_C0_mult_28_n207
*278 i_DP_i_MULTIPLIER_C0_mult_28_n206
*279 i_DP_i_MULTIPLIER_C0_mult_28_n205
*280 i_DP_i_MULTIPLIER_C0_mult_28_n204
*281 i_DP_i_MULTIPLIER_C0_mult_28_n203
*282 i_DP_i_MULTIPLIER_C0_mult_28_n200
*283 i_DP_i_MULTIPLIER_C0_mult_28_n198
*284 i_DP_i_MULTIPLIER_C0_mult_28_n197
*285 i_DP_i_MULTIPLIER_C0_mult_28_n195
*286 i_DP_i_MULTIPLIER_C0_mult_28_n194
*287 i_DP_i_MULTIPLIER_C0_mult_28_n192
*288 i_DP_i_MULTIPLIER_C0_mult_28_n191
*289 i_DP_i_MULTIPLIER_C0_mult_28_n188
*290 i_DP_i_MULTIPLIER_C0_mult_28_n187
*291 i_DP_i_MULTIPLIER_C0_mult_28_n186
*292 i_DP_i_MULTIPLIER_C0_mult_28_n185
*293 i_DP_i_MULTIPLIER_C0_mult_28_n184
*294 i_DP_i_MULTIPLIER_C0_mult_28_n183
*295 i_DP_i_MULTIPLIER_C0_mult_28_n182
*296 i_DP_i_MULTIPLIER_C0_mult_28_n181
*297 i_DP_i_MULTIPLIER_C0_mult_28_n180
*298 i_DP_i_MULTIPLIER_C0_mult_28_n179
*299 i_DP_i_MULTIPLIER_C0_mult_28_n178
*300 i_DP_i_MULTIPLIER_C0_mult_28_n177
*301 i_DP_i_MULTIPLIER_C0_mult_28_n176
*302 i_DP_i_MULTIPLIER_C0_mult_28_n175
*303 i_DP_i_MULTIPLIER_C0_mult_28_n174
*304 i_DP_i_MULTIPLIER_C0_mult_28_n173
*305 i_DP_i_MULTIPLIER_C0_mult_28_n172
*306 i_DP_i_MULTIPLIER_C0_mult_28_n171
*307 i_DP_i_MULTIPLIER_C0_mult_28_n170
*308 i_DP_i_MULTIPLIER_C0_mult_28_n169
*309 i_DP_i_MULTIPLIER_C0_mult_28_n168
*310 i_DP_i_MULTIPLIER_C0_mult_28_n167
*311 i_DP_i_MULTIPLIER_C0_mult_28_n166
*312 i_DP_i_MULTIPLIER_C0_mult_28_n165
*313 i_DP_i_MULTIPLIER_C0_mult_28_n164
*314 i_DP_i_MULTIPLIER_C0_mult_28_n163
*315 i_DP_i_MULTIPLIER_C0_mult_28_n162
*316 i_DP_i_MULTIPLIER_C0_mult_28_n161
*317 i_DP_i_MULTIPLIER_C0_mult_28_n160
*318 i_DP_i_MULTIPLIER_C0_mult_28_n159
*319 i_DP_i_MULTIPLIER_C0_mult_28_n158
*320 i_DP_i_MULTIPLIER_C0_mult_28_n157
*321 i_DP_i_MULTIPLIER_C0_mult_28_n156
*322 i_DP_i_MULTIPLIER_C0_mult_28_n155
*323 i_DP_i_MULTIPLIER_C0_mult_28_n154
*324 i_DP_i_MULTIPLIER_C0_mult_28_n153
*325 i_DP_i_MULTIPLIER_C0_mult_28_n152
*326 i_DP_i_MULTIPLIER_C0_mult_28_n151
*327 i_DP_i_MULTIPLIER_C0_mult_28_n150
*328 i_DP_i_MULTIPLIER_C0_mult_28_n149
*329 i_DP_i_MULTIPLIER_C0_mult_28_n148
*330 i_DP_i_MULTIPLIER_C0_mult_28_n147
*331 i_DP_i_MULTIPLIER_C0_mult_28_n146
*332 i_DP_i_MULTIPLIER_C0_mult_28_n145
*333 i_DP_i_MULTIPLIER_C0_mult_28_n144
*334 i_DP_i_MULTIPLIER_C0_mult_28_n143
*335 i_DP_i_MULTIPLIER_C0_mult_28_n142
*336 i_DP_i_MULTIPLIER_C0_mult_28_n141
*337 i_DP_i_MULTIPLIER_C0_mult_28_n140
*338 i_DP_i_MULTIPLIER_C0_mult_28_n139
*339 i_DP_i_MULTIPLIER_C0_mult_28_n138
*340 i_DP_i_MULTIPLIER_C0_mult_28_n137
*341 i_DP_i_MULTIPLIER_C0_mult_28_n136
*342 i_DP_i_MULTIPLIER_C0_mult_28_n135
*343 i_DP_i_MULTIPLIER_C0_mult_28_n134
*344 i_DP_i_MULTIPLIER_C0_mult_28_n133
*345 i_DP_i_MULTIPLIER_C0_mult_28_n132
*346 i_DP_i_MULTIPLIER_C0_mult_28_n131
*347 i_DP_i_MULTIPLIER_C0_mult_28_n130
*348 i_DP_i_MULTIPLIER_C0_mult_28_n129
*349 i_DP_i_MULTIPLIER_C0_mult_28_n128
*350 i_DP_i_MULTIPLIER_C0_mult_28_n127
*351 i_DP_i_MULTIPLIER_C0_mult_28_n126
*352 i_DP_i_MULTIPLIER_C0_mult_28_n125
*353 i_DP_i_MULTIPLIER_C0_mult_28_n121
*354 i_DP_i_MULTIPLIER_C0_mult_28_n119
*355 i_DP_i_MULTIPLIER_C0_mult_28_n115
*356 i_DP_i_MULTIPLIER_C0_mult_28_n114
*357 i_DP_i_MULTIPLIER_C0_mult_28_n113
*358 i_DP_i_MULTIPLIER_C0_mult_28_n112
*359 i_DP_i_MULTIPLIER_C0_mult_28_n109
*360 i_DP_i_MULTIPLIER_C0_mult_28_n107
*361 i_DP_i_MULTIPLIER_C0_mult_28_n106
*362 i_DP_i_MULTIPLIER_C0_mult_28_n104
*363 i_DP_i_MULTIPLIER_C0_mult_28_n103
*364 i_DP_i_MULTIPLIER_C0_mult_28_n101
*365 i_DP_i_MULTIPLIER_C0_mult_28_n99
*366 i_DP_i_MULTIPLIER_C0_mult_28_n98
*367 i_DP_i_MULTIPLIER_C0_mult_28_n97
*368 i_DP_i_MULTIPLIER_C0_mult_28_n96
*369 i_DP_i_MULTIPLIER_C0_mult_28_n95
*370 i_DP_i_MULTIPLIER_C0_mult_28_n93
*371 i_DP_i_MULTIPLIER_C0_mult_28_n91
*372 i_DP_i_MULTIPLIER_C0_mult_28_n90
*373 i_DP_i_MULTIPLIER_C0_mult_28_n89
*374 i_DP_i_MULTIPLIER_C0_mult_28_n88
*375 i_DP_i_MULTIPLIER_C0_mult_28_n83
*376 i_DP_i_MULTIPLIER_C0_mult_28_n82
*377 i_DP_i_MULTIPLIER_C0_mult_28_n81
*378 i_DP_i_MULTIPLIER_C0_mult_28_n79
*379 i_DP_i_MULTIPLIER_C0_mult_28_n77
*380 i_DP_i_MULTIPLIER_C0_mult_28_n76
*381 i_DP_i_MULTIPLIER_C0_mult_28_n74
*382 i_DP_i_MULTIPLIER_C0_mult_28_n72
*383 i_DP_i_MULTIPLIER_C0_mult_28_n71
*384 i_DP_i_MULTIPLIER_C0_mult_28_n70
*385 i_DP_i_MULTIPLIER_C0_mult_28_n69
*386 i_DP_i_MULTIPLIER_C0_mult_28_n68
*387 i_DP_i_MULTIPLIER_C0_mult_28_n67
*388 i_DP_i_MULTIPLIER_C0_mult_28_n66
*389 i_DP_i_MULTIPLIER_C0_mult_28_n65
*390 i_DP_i_MULTIPLIER_C0_mult_28_n64
*391 i_DP_i_MULTIPLIER_C0_mult_28_n63
*392 i_DP_i_MULTIPLIER_C0_mult_28_n62
*393 i_DP_i_MULTIPLIER_C0_mult_28_n60
*394 i_DP_i_MULTIPLIER_C0_mult_28_n59
*395 i_DP_i_MULTIPLIER_C0_mult_28_n58
*396 i_DP_i_MULTIPLIER_C0_mult_28_n57
*397 i_DP_i_MULTIPLIER_C0_mult_28_n56
*398 i_DP_i_MULTIPLIER_C0_mult_28_n54
*399 i_DP_i_MULTIPLIER_C0_mult_28_n53
*400 i_DP_i_MULTIPLIER_C0_mult_28_n52
*401 i_DP_i_MULTIPLIER_C0_mult_28_n51
*402 i_DP_i_MULTIPLIER_C0_mult_28_n50
*403 i_DP_i_MULTIPLIER_C0_mult_28_n48
*404 i_DP_i_MULTIPLIER_C0_mult_28_n44
*405 i_DP_i_MULTIPLIER_C0_mult_28_n43
*406 i_DP_i_MULTIPLIER_C0_mult_28_n42
*407 i_DP_i_MULTIPLIER_C0_mult_28_n41
*408 i_DP_i_MULTIPLIER_C0_mult_28_n39
*409 i_DP_i_MULTIPLIER_C0_mult_28_n37
*410 i_DP_i_MULTIPLIER_C0_mult_28_n36
*411 i_DP_i_MULTIPLIER_C0_mult_28_n35
*412 i_DP_i_MULTIPLIER_C0_mult_28_n34
*413 i_DP_i_MULTIPLIER_C0_mult_28_n33
*414 i_DP_i_MULTIPLIER_C0_mult_28_n32
*415 i_DP_i_MULTIPLIER_C0_mult_28_n31
*416 i_DP_i_MULTIPLIER_C0_mult_28_n30
*417 i_DP_i_MULTIPLIER_C0_mult_28_n29
*418 i_DP_i_MULTIPLIER_C0_mult_28_n28
*419 i_DP_i_MULTIPLIER_C0_mult_28_n27
*420 i_DP_i_MULTIPLIER_C0_mult_28_n26
*421 i_DP_i_MULTIPLIER_C0_mult_28_n25
*422 i_DP_i_MULTIPLIER_C0_mult_28_n24
*423 i_DP_i_MULTIPLIER_C0_mult_28_n23
*424 i_DP_i_MULTIPLIER_C0_mult_28_n21
*425 i_DP_i_MULTIPLIER_C0_mult_28_n19
*426 i_DP_i_MULTIPLIER_C0_mult_28_n17
*427 i_DP_i_MULTIPLIER_C0_mult_28_n16
*428 i_DP_i_MULTIPLIER_C0_mult_28_n15
*429 i_DP_i_MULTIPLIER_C0_mult_28_n14
*430 i_DP_i_MULTIPLIER_C0_mult_28_n13
*431 i_DP_i_MULTIPLIER_C0_mult_28_n12
*432 i_DP_i_MULTIPLIER_C0_mult_28_n11
*433 i_DP_i_MULTIPLIER_C0_mult_28_n10
*434 i_DP_i_MULTIPLIER_C0_mult_28_n9
*435 i_DP_i_MULTIPLIER_C0_mult_28_n7
*436 i_DP_i_MULTIPLIER_C0_mult_28_n6
*437 i_DP_i_MULTIPLIER_C0_mult_28_n5
*438 i_DP_i_MULTIPLIER_C0_mult_28_n4
*439 i_DP_i_MULTIPLIER_C0_mult_28_n3
*440 i_DP_i_MULTIPLIER_C0_mult_28_n2
*441 i_DP_i_MULTIPLIER_C0_mult_28_n1
*442 i_DP_i_REG_MUL_C0_n6
*443 i_DP_i_REG_MUL_C0_n5
*444 i_DP_i_REG_MUL_C0_n4
*445 i_DP_i_REG_MUL_C0_n3
*446 i_DP_i_REG_MUL_C0_n2
*447 i_DP_i_REG_MUL_C0_n21
*448 i_DP_i_REG_MUL_C0_n20
*449 i_DP_i_REG_MUL_C0_n19
*450 i_DP_i_REG_MUL_C0_n18
*451 i_DP_i_REG_MUL_C0_n17
*452 i_DP_i_REG_MUL_C0_n16
*453 i_DP_i_REG_MUL_C0_n15
*454 i_DP_i_REG_MUL_C0_n14
*455 i_DP_i_REG_MUL_C0_n13
*456 i_DP_i_REG_MUL_C0_n12
*457 i_DP_i_REG_MUL_C0_n11
*458 i_DP_i_REG_MUL_C0_n10
*459 i_DP_i_REG_MUL_C0_n9
*460 i_DP_i_ADDER_0_N0
*461 i_DP_i_ADDER_0_N1
*462 i_DP_i_ADDER_0_N2
*463 i_DP_i_ADDER_0_N3
*464 i_DP_i_ADDER_0_N4
*465 i_DP_i_ADDER_0_N5
*466 i_DP_i_ADDER_0_N6
*467 i_DP_i_ADDER_0_N7
*468 i_DP_i_ADDER_0_N8
*469 i_DP_i_ADDER_0_N9
*470 i_DP_i_ADDER_0_add_0_root_add_0_root_add_29_2_n111
*471 i_DP_i_ADDER_0_add_0_root_add_0_root_add_29_2_n110
*472 i_DP_i_ADDER_0_add_0_root_add_0_root_add_29_2_n109
*473 i_DP_i_ADDER_0_add_0_root_add_0_root_add_29_2_n108
*474 i_DP_i_ADDER_0_add_0_root_add_0_root_add_29_2_n65
*475 i_DP_i_ADDER_0_add_0_root_add_0_root_add_29_2_n64
*476 i_DP_i_ADDER_0_add_0_root_add_0_root_add_29_2_n63
*477 i_DP_i_ADDER_0_add_0_root_add_0_root_add_29_2_n62
*478 i_DP_i_ADDER_0_add_0_root_add_0_root_add_29_2_n57
*479 i_DP_i_ADDER_0_add_0_root_add_0_root_add_29_2_n54
*480 i_DP_i_ADDER_0_add_0_root_add_0_root_add_29_2_n52
*481 i_DP_i_ADDER_0_add_0_root_add_0_root_add_29_2_n51
*482 i_DP_i_ADDER_0_add_0_root_add_0_root_add_29_2_n50
*483 i_DP_i_ADDER_0_add_0_root_add_0_root_add_29_2_n48
*484 i_DP_i_ADDER_0_add_0_root_add_0_root_add_29_2_n46
*485 i_DP_i_ADDER_0_add_0_root_add_0_root_add_29_2_n45
*486 i_DP_i_ADDER_0_add_0_root_add_0_root_add_29_2_n43
*487 i_DP_i_ADDER_0_add_0_root_add_0_root_add_29_2_n41
*488 i_DP_i_ADDER_0_add_0_root_add_0_root_add_29_2_n40
*489 i_DP_i_ADDER_0_add_0_root_add_0_root_add_29_2_n39
*490 i_DP_i_ADDER_0_add_0_root_add_0_root_add_29_2_n38
*491 i_DP_i_ADDER_0_add_0_root_add_0_root_add_29_2_n37
*492 i_DP_i_ADDER_0_add_0_root_add_0_root_add_29_2_n36
*493 i_DP_i_ADDER_0_add_0_root_add_0_root_add_29_2_n35
*494 i_DP_i_ADDER_0_add_0_root_add_0_root_add_29_2_n34
*495 i_DP_i_ADDER_0_add_0_root_add_0_root_add_29_2_n33
*496 i_DP_i_ADDER_0_add_0_root_add_0_root_add_29_2_n32
*497 i_DP_i_ADDER_0_add_0_root_add_0_root_add_29_2_n31
*498 i_DP_i_ADDER_0_add_0_root_add_0_root_add_29_2_n30
*499 i_DP_i_ADDER_0_add_0_root_add_0_root_add_29_2_n29
*500 i_DP_i_ADDER_0_add_0_root_add_0_root_add_29_2_n28
*501 i_DP_i_ADDER_0_add_0_root_add_0_root_add_29_2_n27
*502 i_DP_i_ADDER_0_add_0_root_add_0_root_add_29_2_n26
*503 i_DP_i_ADDER_0_add_0_root_add_0_root_add_29_2_n25
*504 i_DP_i_ADDER_0_add_0_root_add_0_root_add_29_2_n24
*505 i_DP_i_ADDER_0_add_0_root_add_0_root_add_29_2_n23
*506 i_DP_i_ADDER_0_add_0_root_add_0_root_add_29_2_n22
*507 i_DP_i_ADDER_0_add_0_root_add_0_root_add_29_2_n21
*508 i_DP_i_ADDER_0_add_0_root_add_0_root_add_29_2_n20
*509 i_DP_i_ADDER_0_add_0_root_add_0_root_add_29_2_n18
*510 i_DP_i_ADDER_0_add_0_root_add_0_root_add_29_2_n16
*511 i_DP_i_ADDER_0_add_0_root_add_0_root_add_29_2_n15
*512 i_DP_i_ADDER_0_add_0_root_add_0_root_add_29_2_n14
*513 i_DP_i_ADDER_0_add_0_root_add_0_root_add_29_2_n13
*514 i_DP_i_ADDER_0_add_0_root_add_0_root_add_29_2_n10
*515 i_DP_i_ADDER_0_add_0_root_add_0_root_add_29_2_n9
*516 i_DP_i_ADDER_0_add_0_root_add_0_root_add_29_2_n8
*517 i_DP_i_ADDER_0_add_0_root_add_0_root_add_29_2_n7
*518 i_DP_i_ADDER_0_add_0_root_add_0_root_add_29_2_n6
*519 i_DP_i_ADDER_0_add_0_root_add_0_root_add_29_2_n5
*520 i_DP_i_ADDER_0_add_0_root_add_0_root_add_29_2_n4
*521 i_DP_i_ADDER_0_add_0_root_add_0_root_add_29_2_n3
*522 i_DP_i_ADDER_0_add_0_root_add_0_root_add_29_2_n2
*523 i_DP_i_ADDER_0_add_0_root_add_0_root_add_29_2_n1
*524 i_DP_i_ADDER_0_add_1_root_add_0_root_add_29_2_n110
*525 i_DP_i_ADDER_0_add_1_root_add_0_root_add_29_2_n109
*526 i_DP_i_ADDER_0_add_1_root_add_0_root_add_29_2_n108
*527 i_DP_i_ADDER_0_add_1_root_add_0_root_add_29_2_n69
*528 i_DP_i_ADDER_0_add_1_root_add_0_root_add_29_2_n68
*529 i_DP_i_ADDER_0_add_1_root_add_0_root_add_29_2_n67
*530 i_DP_i_ADDER_0_add_1_root_add_0_root_add_29_2_n66
*531 i_DP_i_ADDER_0_add_1_root_add_0_root_add_29_2_n65
*532 i_DP_i_ADDER_0_add_1_root_add_0_root_add_29_2_n64
*533 i_DP_i_ADDER_0_add_1_root_add_0_root_add_29_2_n63
*534 i_DP_i_ADDER_0_add_1_root_add_0_root_add_29_2_n57
*535 i_DP_i_ADDER_0_add_1_root_add_0_root_add_29_2_n56
*536 i_DP_i_ADDER_0_add_1_root_add_0_root_add_29_2_n55
*537 i_DP_i_ADDER_0_add_1_root_add_0_root_add_29_2_n54
*538 i_DP_i_ADDER_0_add_1_root_add_0_root_add_29_2_n53
*539 i_DP_i_ADDER_0_add_1_root_add_0_root_add_29_2_n52
*540 i_DP_i_ADDER_0_add_1_root_add_0_root_add_29_2_n51
*541 i_DP_i_ADDER_0_add_1_root_add_0_root_add_29_2_n50
*542 i_DP_i_ADDER_0_add_1_root_add_0_root_add_29_2_n49
*543 i_DP_i_ADDER_0_add_1_root_add_0_root_add_29_2_n48
*544 i_DP_i_ADDER_0_add_1_root_add_0_root_add_29_2_n47
*545 i_DP_i_ADDER_0_add_1_root_add_0_root_add_29_2_n46
*546 i_DP_i_ADDER_0_add_1_root_add_0_root_add_29_2_n45
*547 i_DP_i_ADDER_0_add_1_root_add_0_root_add_29_2_n44
*548 i_DP_i_ADDER_0_add_1_root_add_0_root_add_29_2_n43
*549 i_DP_i_ADDER_0_add_1_root_add_0_root_add_29_2_n41
*550 i_DP_i_ADDER_0_add_1_root_add_0_root_add_29_2_n40
*551 i_DP_i_ADDER_0_add_1_root_add_0_root_add_29_2_n39
*552 i_DP_i_ADDER_0_add_1_root_add_0_root_add_29_2_n36
*553 i_DP_i_ADDER_0_add_1_root_add_0_root_add_29_2_n35
*554 i_DP_i_ADDER_0_add_1_root_add_0_root_add_29_2_n34
*555 i_DP_i_ADDER_0_add_1_root_add_0_root_add_29_2_n33
*556 i_DP_i_ADDER_0_add_1_root_add_0_root_add_29_2_n32
*557 i_DP_i_ADDER_0_add_1_root_add_0_root_add_29_2_n31
*558 i_DP_i_ADDER_0_add_1_root_add_0_root_add_29_2_n28
*559 i_DP_i_ADDER_0_add_1_root_add_0_root_add_29_2_n27
*560 i_DP_i_ADDER_0_add_1_root_add_0_root_add_29_2_n26
*561 i_DP_i_ADDER_0_add_1_root_add_0_root_add_29_2_n25
*562 i_DP_i_ADDER_0_add_1_root_add_0_root_add_29_2_n24
*563 i_DP_i_ADDER_0_add_1_root_add_0_root_add_29_2_n23
*564 i_DP_i_ADDER_0_add_1_root_add_0_root_add_29_2_n22
*565 i_DP_i_ADDER_0_add_1_root_add_0_root_add_29_2_n21
*566 i_DP_i_ADDER_0_add_1_root_add_0_root_add_29_2_n20
*567 i_DP_i_ADDER_0_add_1_root_add_0_root_add_29_2_n19
*568 i_DP_i_ADDER_0_add_1_root_add_0_root_add_29_2_n18
*569 i_DP_i_ADDER_0_add_1_root_add_0_root_add_29_2_n17
*570 i_DP_i_ADDER_0_add_1_root_add_0_root_add_29_2_n15
*571 i_DP_i_ADDER_0_add_1_root_add_0_root_add_29_2_n13
*572 i_DP_i_ADDER_0_add_1_root_add_0_root_add_29_2_n12
*573 i_DP_i_ADDER_0_add_1_root_add_0_root_add_29_2_n9
*574 i_DP_i_ADDER_0_add_1_root_add_0_root_add_29_2_n8
*575 i_DP_i_ADDER_0_add_1_root_add_0_root_add_29_2_n7
*576 i_DP_i_ADDER_0_add_1_root_add_0_root_add_29_2_n6
*577 i_DP_i_ADDER_0_add_1_root_add_0_root_add_29_2_n5
*578 i_DP_i_ADDER_0_add_1_root_add_0_root_add_29_2_n4
*579 i_DP_i_ADDER_0_add_1_root_add_0_root_add_29_2_n3
*580 i_DP_i_ADDER_0_add_1_root_add_0_root_add_29_2_n2
*581 i_DP_i_ADDER_0_add_1_root_add_0_root_add_29_2_n1
*582 i_DP_i_REG_DEL_1_n9
*583 i_DP_i_REG_DEL_1_n4
*584 i_DP_i_REG_DEL_1_n30
*585 i_DP_i_REG_DEL_1_n29
*586 i_DP_i_REG_DEL_1_n28
*587 i_DP_i_REG_DEL_1_n27
*588 i_DP_i_REG_DEL_1_n26
*589 i_DP_i_REG_DEL_1_n25
*590 i_DP_i_REG_DEL_1_n24
*591 i_DP_i_REG_DEL_1_n23
*592 i_DP_i_REG_DEL_1_n22
*593 i_DP_i_REG_DEL_1_n21
*594 i_DP_i_REG_DEL_1_n20
*595 i_DP_i_REG_DEL_1_n19
*596 i_DP_i_REG_DEL_1_n18
*597 i_DP_i_REG_DEL_1_n16
*598 i_DP_i_REG_DEL_1_n15
*599 i_DP_i_REG_DEL_1_n14
*600 i_DP_i_REG_DEL_1_n13
*601 i_DP_i_REG_DEL_1_n12
*602 i_DP_i_REG_DEL_1_n11
*603 i_DP_i_REG_DEL_1_n34
*604 i_DP_i_REG_DEL_1_n33
*605 i_DP_i_REG_DEL_1_n32
*606 i_DP_i_REG_DEL_1_n31
*607 i_DP_i_REG_DEL_1_n17
*608 i_DP_i_MULTIPLIER_C1_MULTIPLIER_OUT_P_0_
*609 i_DP_i_MULTIPLIER_C1_MULTIPLIER_OUT_P_1_
*610 i_DP_i_MULTIPLIER_C1_MULTIPLIER_OUT_P_2_
*611 i_DP_i_MULTIPLIER_C1_MULTIPLIER_OUT_P_3_
*612 i_DP_i_MULTIPLIER_C1_MULTIPLIER_OUT_P_4_
*613 i_DP_i_MULTIPLIER_C1_MULTIPLIER_OUT_P_5_
*614 i_DP_i_MULTIPLIER_C1_MULTIPLIER_OUT_P_6_
*615 i_DP_i_MULTIPLIER_C1_MULTIPLIER_OUT_P_7_
*616 i_DP_i_MULTIPLIER_C1_MULTIPLIER_OUT_P_8_
*617 i_DP_i_MULTIPLIER_C1_MULTIPLIER_OUT_P_9_
*618 i_DP_i_MULTIPLIER_C1_MULTIPLIER_OUT_P_17_
*619 i_DP_i_MULTIPLIER_C1_MULTIPLIER_OUT_P_18_
*620 i_DP_i_MULTIPLIER_C1_MULTIPLIER_OUT_P_19_
*621 i_DP_i_MULTIPLIER_C1_mult_28_n520
*622 i_DP_i_MULTIPLIER_C1_mult_28_n518
*623 i_DP_i_MULTIPLIER_C1_mult_28_n517
*624 i_DP_i_MULTIPLIER_C1_mult_28_n510
*625 i_DP_i_MULTIPLIER_C1_mult_28_n509
*626 i_DP_i_MULTIPLIER_C1_mult_28_n508
*627 i_DP_i_MULTIPLIER_C1_mult_28_n507
*628 i_DP_i_MULTIPLIER_C1_mult_28_n506
*629 i_DP_i_MULTIPLIER_C1_mult_28_n504
*630 i_DP_i_MULTIPLIER_C1_mult_28_n499
*631 i_DP_i_MULTIPLIER_C1_mult_28_n498
*632 i_DP_i_MULTIPLIER_C1_mult_28_n496
*633 i_DP_i_MULTIPLIER_C1_mult_28_n495
*634 i_DP_i_MULTIPLIER_C1_mult_28_n494
*635 i_DP_i_MULTIPLIER_C1_mult_28_n493
*636 i_DP_i_MULTIPLIER_C1_mult_28_n492
*637 i_DP_i_MULTIPLIER_C1_mult_28_n491
*638 i_DP_i_MULTIPLIER_C1_mult_28_n490
*639 i_DP_i_MULTIPLIER_C1_mult_28_n489
*640 i_DP_i_MULTIPLIER_C1_mult_28_n488
*641 i_DP_i_MULTIPLIER_C1_mult_28_n485
*642 i_DP_i_MULTIPLIER_C1_mult_28_n484
*643 i_DP_i_MULTIPLIER_C1_mult_28_n483
*644 i_DP_i_MULTIPLIER_C1_mult_28_n481
*645 i_DP_i_MULTIPLIER_C1_mult_28_n480
*646 i_DP_i_MULTIPLIER_C1_mult_28_n478
*647 i_DP_i_MULTIPLIER_C1_mult_28_n477
*648 i_DP_i_MULTIPLIER_C1_mult_28_n476
*649 i_DP_i_MULTIPLIER_C1_mult_28_n472
*650 i_DP_i_MULTIPLIER_C1_mult_28_n471
*651 i_DP_i_MULTIPLIER_C1_mult_28_n468
*652 i_DP_i_MULTIPLIER_C1_mult_28_n467
*653 i_DP_i_MULTIPLIER_C1_mult_28_n466
*654 i_DP_i_MULTIPLIER_C1_mult_28_n465
*655 i_DP_i_MULTIPLIER_C1_mult_28_n460
*656 i_DP_i_MULTIPLIER_C1_mult_28_n459
*657 i_DP_i_MULTIPLIER_C1_mult_28_n452
*658 i_DP_i_MULTIPLIER_C1_mult_28_n445
*659 i_DP_i_MULTIPLIER_C1_mult_28_n441
*660 i_DP_i_MULTIPLIER_C1_mult_28_n440
*661 i_DP_i_MULTIPLIER_C1_mult_28_n439
*662 i_DP_i_MULTIPLIER_C1_mult_28_n438
*663 i_DP_i_MULTIPLIER_C1_mult_28_n437
*664 i_DP_i_MULTIPLIER_C1_mult_28_n435
*665 i_DP_i_MULTIPLIER_C1_mult_28_n434
*666 i_DP_i_MULTIPLIER_C1_mult_28_n433
*667 i_DP_i_MULTIPLIER_C1_mult_28_n430
*668 i_DP_i_MULTIPLIER_C1_mult_28_n429
*669 i_DP_i_MULTIPLIER_C1_mult_28_n361
*670 i_DP_i_MULTIPLIER_C1_mult_28_n360
*671 i_DP_i_MULTIPLIER_C1_mult_28_n359
*672 i_DP_i_MULTIPLIER_C1_mult_28_n358
*673 i_DP_i_MULTIPLIER_C1_mult_28_n356
*674 i_DP_i_MULTIPLIER_C1_mult_28_n355
*675 i_DP_i_MULTIPLIER_C1_mult_28_n354
*676 i_DP_i_MULTIPLIER_C1_mult_28_n353
*677 i_DP_i_MULTIPLIER_C1_mult_28_n337
*678 i_DP_i_MULTIPLIER_C1_mult_28_n336
*679 i_DP_i_MULTIPLIER_C1_mult_28_n335
*680 i_DP_i_MULTIPLIER_C1_mult_28_n334
*681 i_DP_i_MULTIPLIER_C1_mult_28_n333
*682 i_DP_i_MULTIPLIER_C1_mult_28_n332
*683 i_DP_i_MULTIPLIER_C1_mult_28_n331
*684 i_DP_i_MULTIPLIER_C1_mult_28_n330
*685 i_DP_i_MULTIPLIER_C1_mult_28_n329
*686 i_DP_i_MULTIPLIER_C1_mult_28_n328
*687 i_DP_i_MULTIPLIER_C1_mult_28_n327
*688 i_DP_i_MULTIPLIER_C1_mult_28_n326
*689 i_DP_i_MULTIPLIER_C1_mult_28_n325
*690 i_DP_i_MULTIPLIER_C1_mult_28_n324
*691 i_DP_i_MULTIPLIER_C1_mult_28_n323
*692 i_DP_i_MULTIPLIER_C1_mult_28_n322
*693 i_DP_i_MULTIPLIER_C1_mult_28_n321
*694 i_DP_i_MULTIPLIER_C1_mult_28_n320
*695 i_DP_i_MULTIPLIER_C1_mult_28_n319
*696 i_DP_i_MULTIPLIER_C1_mult_28_n318
*697 i_DP_i_MULTIPLIER_C1_mult_28_n317
*698 i_DP_i_MULTIPLIER_C1_mult_28_n316
*699 i_DP_i_MULTIPLIER_C1_mult_28_n315
*700 i_DP_i_MULTIPLIER_C1_mult_28_n314
*701 i_DP_i_MULTIPLIER_C1_mult_28_n313
*702 i_DP_i_MULTIPLIER_C1_mult_28_n312
*703 i_DP_i_MULTIPLIER_C1_mult_28_n311
*704 i_DP_i_MULTIPLIER_C1_mult_28_n310
*705 i_DP_i_MULTIPLIER_C1_mult_28_n309
*706 i_DP_i_MULTIPLIER_C1_mult_28_n308
*707 i_DP_i_MULTIPLIER_C1_mult_28_n307
*708 i_DP_i_MULTIPLIER_C1_mult_28_n306
*709 i_DP_i_MULTIPLIER_C1_mult_28_n305
*710 i_DP_i_MULTIPLIER_C1_mult_28_n304
*711 i_DP_i_MULTIPLIER_C1_mult_28_n303
*712 i_DP_i_MULTIPLIER_C1_mult_28_n302
*713 i_DP_i_MULTIPLIER_C1_mult_28_n301
*714 i_DP_i_MULTIPLIER_C1_mult_28_n300
*715 i_DP_i_MULTIPLIER_C1_mult_28_n299
*716 i_DP_i_MULTIPLIER_C1_mult_28_n298
*717 i_DP_i_MULTIPLIER_C1_mult_28_n297
*718 i_DP_i_MULTIPLIER_C1_mult_28_n296
*719 i_DP_i_MULTIPLIER_C1_mult_28_n295
*720 i_DP_i_MULTIPLIER_C1_mult_28_n294
*721 i_DP_i_MULTIPLIER_C1_mult_28_n293
*722 i_DP_i_MULTIPLIER_C1_mult_28_n292
*723 i_DP_i_MULTIPLIER_C1_mult_28_n291
*724 i_DP_i_MULTIPLIER_C1_mult_28_n290
*725 i_DP_i_MULTIPLIER_C1_mult_28_n289
*726 i_DP_i_MULTIPLIER_C1_mult_28_n288
*727 i_DP_i_MULTIPLIER_C1_mult_28_n287
*728 i_DP_i_MULTIPLIER_C1_mult_28_n286
*729 i_DP_i_MULTIPLIER_C1_mult_28_n285
*730 i_DP_i_MULTIPLIER_C1_mult_28_n284
*731 i_DP_i_MULTIPLIER_C1_mult_28_n283
*732 i_DP_i_MULTIPLIER_C1_mult_28_n282
*733 i_DP_i_MULTIPLIER_C1_mult_28_n281
*734 i_DP_i_MULTIPLIER_C1_mult_28_n280
*735 i_DP_i_MULTIPLIER_C1_mult_28_n279
*736 i_DP_i_MULTIPLIER_C1_mult_28_n278
*737 i_DP_i_MULTIPLIER_C1_mult_28_n277
*738 i_DP_i_MULTIPLIER_C1_mult_28_n276
*739 i_DP_i_MULTIPLIER_C1_mult_28_n275
*740 i_DP_i_MULTIPLIER_C1_mult_28_n274
*741 i_DP_i_MULTIPLIER_C1_mult_28_n273
*742 i_DP_i_MULTIPLIER_C1_mult_28_n272
*743 i_DP_i_MULTIPLIER_C1_mult_28_n271
*744 i_DP_i_MULTIPLIER_C1_mult_28_n270
*745 i_DP_i_MULTIPLIER_C1_mult_28_n269
*746 i_DP_i_MULTIPLIER_C1_mult_28_n268
*747 i_DP_i_MULTIPLIER_C1_mult_28_n267
*748 i_DP_i_MULTIPLIER_C1_mult_28_n266
*749 i_DP_i_MULTIPLIER_C1_mult_28_n265
*750 i_DP_i_MULTIPLIER_C1_mult_28_n264
*751 i_DP_i_MULTIPLIER_C1_mult_28_n263
*752 i_DP_i_MULTIPLIER_C1_mult_28_n262
*753 i_DP_i_MULTIPLIER_C1_mult_28_n261
*754 i_DP_i_MULTIPLIER_C1_mult_28_n260
*755 i_DP_i_MULTIPLIER_C1_mult_28_n259
*756 i_DP_i_MULTIPLIER_C1_mult_28_n258
*757 i_DP_i_MULTIPLIER_C1_mult_28_n257
*758 i_DP_i_MULTIPLIER_C1_mult_28_n256
*759 i_DP_i_MULTIPLIER_C1_mult_28_n255
*760 i_DP_i_MULTIPLIER_C1_mult_28_n254
*761 i_DP_i_MULTIPLIER_C1_mult_28_n253
*762 i_DP_i_MULTIPLIER_C1_mult_28_n252
*763 i_DP_i_MULTIPLIER_C1_mult_28_n251
*764 i_DP_i_MULTIPLIER_C1_mult_28_n250
*765 i_DP_i_MULTIPLIER_C1_mult_28_n249
*766 i_DP_i_MULTIPLIER_C1_mult_28_n248
*767 i_DP_i_MULTIPLIER_C1_mult_28_n247
*768 i_DP_i_MULTIPLIER_C1_mult_28_n246
*769 i_DP_i_MULTIPLIER_C1_mult_28_n245
*770 i_DP_i_MULTIPLIER_C1_mult_28_n244
*771 i_DP_i_MULTIPLIER_C1_mult_28_n243
*772 i_DP_i_MULTIPLIER_C1_mult_28_n242
*773 i_DP_i_MULTIPLIER_C1_mult_28_n241
*774 i_DP_i_MULTIPLIER_C1_mult_28_n240
*775 i_DP_i_MULTIPLIER_C1_mult_28_n239
*776 i_DP_i_MULTIPLIER_C1_mult_28_n238
*777 i_DP_i_MULTIPLIER_C1_mult_28_n236
*778 i_DP_i_MULTIPLIER_C1_mult_28_n235
*779 i_DP_i_MULTIPLIER_C1_mult_28_n234
*780 i_DP_i_MULTIPLIER_C1_mult_28_n233
*781 i_DP_i_MULTIPLIER_C1_mult_28_n232
*782 i_DP_i_MULTIPLIER_C1_mult_28_n231
*783 i_DP_i_MULTIPLIER_C1_mult_28_n230
*784 i_DP_i_MULTIPLIER_C1_mult_28_n229
*785 i_DP_i_MULTIPLIER_C1_mult_28_n228
*786 i_DP_i_MULTIPLIER_C1_mult_28_n225
*787 i_DP_i_MULTIPLIER_C1_mult_28_n223
*788 i_DP_i_MULTIPLIER_C1_mult_28_n222
*789 i_DP_i_MULTIPLIER_C1_mult_28_n220
*790 i_DP_i_MULTIPLIER_C1_mult_28_n219