*SPEF "IEEE 1481-1998"
*DESIGN "IIR_1lookahead"
*DATE "Sun Oct 24 14:04:50 2021"
*VENDOR "Cadence Design Systems, Inc."
*PROGRAM "Innovus"
*VERSION "17.11-s080_1"
*DESIGN_FLOW "COUPLING C" "PIN_CAP NONE" "NAME_SCOPE LOCAL"
*DIVIDER /
*DELIMITER :
*BUS_DELIMITER []
*T_UNIT 1 NS
*C_UNIT 1 PF
*R_UNIT 1 OHM
*L_UNIT 1 HENRY

// MMMC spef file for corner 'my_rc'

*NAME_MAP

*1 DIN[8]
*2 DIN[7]
*3 DIN[6]
*4 DIN[5]
*5 DIN[4]
*6 DIN[3]
*7 DIN[2]
*8 DIN[1]
*9 DIN[0]
*10 C0[8]
*11 C0[7]
*12 C0[6]
*13 C0[5]
*14 C0[4]
*15 C0[3]
*16 C0[2]
*17 C0[1]
*18 C0[0]
*19 C1[8]
*20 C1[7]
*21 C1[6]
*22 C1[5]
*23 C1[4]
*24 C1[3]
*25 C1[2]
*26 C1[1]
*27 C1[0]
*28 C2[8]
*29 C2[7]
*30 C2[6]
*31 C2[5]
*32 C2[4]
*33 C2[3]
*34 C2[2]
*35 C2[1]
*36 C2[0]
*37 B0[8]
*38 B0[7]
*39 B0[6]
*40 B0[5]
*41 B0[4]
*42 B0[3]
*43 B0[2]
*44 B0[1]
*45 B0[0]
*46 B1[8]
*47 B1[7]
*48 B1[6]
*49 B1[5]
*50 B1[4]
*51 B1[3]
*52 B1[2]
*53 B1[1]
*54 B1[0]
*55 B2[8]
*56 B2[7]
*57 B2[6]
*58 B2[5]
*59 B2[4]
*60 B2[3]
*61 B2[2]
*62 B2[1]
*63 B2[0]
*64 VIN
*65 CLK
*66 RST_N
*67 DOUT[8]
*68 DOUT[7]
*69 DOUT[6]
*70 DOUT[5]
*71 DOUT[4]
*72 DOUT[3]
*73 DOUT[2]
*74 DOUT[1]
*75 DOUT[0]
*76 VOUT
*77 FE_PHN27_FE_OFN14_RST_N
*78 FE_PHN26_FE_OFN14_RST_N
*79 FE_PHN25_FE_OFN14_RST_N
*80 FE_PHN24_FE_OFN14_RST_N
*81 FE_PHN23_FE_OFN14_RST_N
*82 FE_PHN22_FE_OFN14_RST_N
*83 FE_PHN21_FE_OFN14_RST_N
*84 FE_PHN20_FE_OFN14_RST_N
*85 FE_OFN19_i_DP_i_MULTIPLIER_C2_mult_28_n360
*86 FE_OFN18_i_DP_i_MULTIPLIER_C2_mult_28_n358
*87 FE_OFN17_i_DP_i_MULTIPLIER_C1_mult_28_n361
*88 FE_OFN16_RST_N
*89 FE_OFN15_RST_N
*90 FE_OFN14_RST_N
*91 FE_OFN13_i_DP_i_MULTIPLIER_C0_mult_28_n322
*92 FE_OFN12_i_DP_i_MULTIPLIER_B2_mult_28_n358
*93 FE_OFN11_i_DP_i_MULTIPLIER_C0_mult_28_n323
*94 FE_OFN10_i_DP_i_MULTIPLIER_B1_mult_28_n361
*95 FE_OFN9_i_DP_i_MULTIPLIER_B2_mult_28_n360
*96 FE_OFN8_i_DP_i_MULTIPLIER_B2_mult_28_n359
*97 FE_OFN7_i_DP_i_MULTIPLIER_B0_mult_28_n359
*98 FE_OFN6_i_DP_i_MULTIPLIER_C0_mult_28_n325
*99 FE_OFN5_i_DP_i_MULTIPLIER_B1_mult_28_n360
*100 FE_OFN4_i_DP_i_MULTIPLIER_B1_mult_28_n358
*101 FE_OFN3_i_DP_i_MULTIPLIER_B0_mult_28_n361
*102 FE_OFN2_i_DP_i_MULTIPLIER_B2_mult_28_n361
*103 FE_OFN1_i_DP_i_MULTIPLIER_B1_mult_28_n359
*104 FE_OFN0_i_DP_i_MULTIPLIER_C2_mult_28_n361
*105 FE_DBTN6_DIN_REGIN_DP_0
*106 FE_DBTN5_i_DP_i_MULTIPLIER_C1_mult_28_n505
*107 FE_DBTN4_i_DP_i_MULTIPLIER_C1_mult_28_n67
*108 FE_DBTN3_i_DP_W_DELAY_1_0
*109 FE_DBTN2_i_DP_i_MULTIPLIER_C2_mult_28_n501
*110 FE_DBTN1_i_DP_i_MULTIPLIER_B0_mult_28_n78
*111 FE_DBTN0_i_DP_i_MULTIPLIER_B2_mult_28_n78
*112 VIN_FROM_REGIN
*113 VIN_FROM_PIPE
*114 i_input_register_DIN_n9
*115 i_input_register_DIN_n7
*116 i_input_register_DIN_n6
*117 i_input_register_DIN_n5
*118 i_input_register_DIN_n3
*119 i_input_register_DIN_n1
*120 i_input_register_DIN_n27
*121 i_input_register_DIN_n26
*122 i_input_register_DIN_n25
*123 i_input_register_DIN_n24
*124 i_input_register_DIN_n23
*125 i_input_register_DIN_n22
*126 i_input_register_DIN_n21
*127 i_input_register_DIN_n20
*128 i_input_register_DIN_n19
*129 i_input_register_DIN_n18
*130 i_input_register_DIN_n17
*131 i_input_register_DIN_n16
*132 i_input_register_DIN_n15
*133 i_input_register_DIN_n14
*134 i_input_register_DIN_n13
*135 i_input_register_DIN_n12
*136 i_input_register_DIN_n11
*137 i_input_register_DIN_n10
*138 i_input_register_DIN_n29
*139 i_input_register_DIN_n28
*140 i_DP_i_MULTIPLIER_C0_MULTIPLIER_OUT_P_0_
*141 i_DP_i_MULTIPLIER_C0_MULTIPLIER_OUT_P_1_
*142 i_DP_i_MULTIPLIER_C0_MULTIPLIER_OUT_P_2_
*143 i_DP_i_MULTIPLIER_C0_MULTIPLIER_OUT_P_3_
*144 i_DP_i_MULTIPLIER_C0_MULTIPLIER_OUT_P_4_
*145 i_DP_i_MULTIPLIER_C0_MULTIPLIER_OUT_P_5_
*146 i_DP_i_MULTIPLIER_C0_MULTIPLIER_OUT_P_6_
*147 i_DP_i_MULTIPLIER_C0_MULTIPLIER_OUT_P_7_
*148 i_DP_i_MULTIPLIER_C0_MULTIPLIER_OUT_P_8_
*149 i_DP_i_MULTIPLIER_C0_MULTIPLIER_OUT_P_9_
*150 i_DP_i_MULTIPLIER_C0_MULTIPLIER_OUT_P_17_
*151 i_DP_i_MULTIPLIER_C0_mult_28_n456
*152 i_DP_i_MULTIPLIER_C0_mult_28_n455
*153 i_DP_i_MULTIPLIER_C0_mult_28_n454
*154 i_DP_i_MULTIPLIER_C0_mult_28_n453
*155 i_DP_i_MULTIPLIER_C0_mult_28_n452
*156 i_DP_i_MULTIPLIER_C0_mult_28_n451
*157 i_DP_i_MULTIPLIER_C0_mult_28_n450
*158 i_DP_i_MULTIPLIER_C0_mult_28_n449
*159 i_DP_i_MULTIPLIER_C0_mult_28_n446
*160 i_DP_i_MULTIPLIER_C0_mult_28_n442
*161 i_DP_i_MULTIPLIER_C0_mult_28_n441
*162 i_DP_i_MULTIPLIER_C0_mult_28_n440
*163 i_DP_i_MULTIPLIER_C0_mult_28_n438
*164 i_DP_i_MULTIPLIER_C0_mult_28_n437
*165 i_DP_i_MULTIPLIER_C0_mult_28_n436
*166 i_DP_i_MULTIPLIER_C0_mult_28_n435
*167 i_DP_i_MULTIPLIER_C0_mult_28_n434
*168 i_DP_i_MULTIPLIER_C0_mult_28_n433
*169 i_DP_i_MULTIPLIER_C0_mult_28_n432
*170 i_DP_i_MULTIPLIER_C0_mult_28_n430
*171 i_DP_i_MULTIPLIER_C0_mult_28_n429
*172 i_DP_i_MULTIPLIER_C0_mult_28_n428
*173 i_DP_i_MULTIPLIER_C0_mult_28_n425
*174 i_DP_i_MULTIPLIER_C0_mult_28_n424
*175 i_DP_i_MULTIPLIER_C0_mult_28_n423
*176 i_DP_i_MULTIPLIER_C0_mult_28_n421
*177 i_DP_i_MULTIPLIER_C0_mult_28_n415
*178 i_DP_i_MULTIPLIER_C0_mult_28_n412
*179 i_DP_i_MULTIPLIER_C0_mult_28_n411
*180 i_DP_i_MULTIPLIER_C0_mult_28_n410
*181 i_DP_i_MULTIPLIER_C0_mult_28_n409
*182 i_DP_i_MULTIPLIER_C0_mult_28_n407
*183 i_DP_i_MULTIPLIER_C0_mult_28_n398
*184 i_DP_i_MULTIPLIER_C0_mult_28_n396
*185 i_DP_i_MULTIPLIER_C0_mult_28_n395
*186 i_DP_i_MULTIPLIER_C0_mult_28_n329
*187 i_DP_i_MULTIPLIER_C0_mult_28_n327
*188 i_DP_i_MULTIPLIER_C0_mult_28_n325
*189 i_DP_i_MULTIPLIER_C0_mult_28_n324
*190 i_DP_i_MULTIPLIER_C0_mult_28_n323
*191 i_DP_i_MULTIPLIER_C0_mult_28_n322
*192 i_DP_i_MULTIPLIER_C0_mult_28_n321
*193 i_DP_i_MULTIPLIER_C0_mult_28_n320
*194 i_DP_i_MULTIPLIER_C0_mult_28_n319
*195 i_DP_i_MULTIPLIER_C0_mult_28_n318
*196 i_DP_i_MULTIPLIER_C0_mult_28_n316
*197 i_DP_i_MULTIPLIER_C0_mult_28_n315
*198 i_DP_i_MULTIPLIER_C0_mult_28_n314
*199 i_DP_i_MULTIPLIER_C0_mult_28_n313
*200 i_DP_i_MULTIPLIER_C0_mult_28_n302
*201 i_DP_i_MULTIPLIER_C0_mult_28_n301
*202 i_DP_i_MULTIPLIER_C0_mult_28_n300
*203 i_DP_i_MULTIPLIER_C0_mult_28_n299
*204 i_DP_i_MULTIPLIER_C0_mult_28_n298
*205 i_DP_i_MULTIPLIER_C0_mult_28_n297
*206 i_DP_i_MULTIPLIER_C0_mult_28_n296
*207 i_DP_i_MULTIPLIER_C0_mult_28_n295
*208 i_DP_i_MULTIPLIER_C0_mult_28_n294
*209 i_DP_i_MULTIPLIER_C0_mult_28_n293
*210 i_DP_i_MULTIPLIER_C0_mult_28_n292
*211 i_DP_i_MULTIPLIER_C0_mult_28_n291
*212 i_DP_i_MULTIPLIER_C0_mult_28_n290
*213 i_DP_i_MULTIPLIER_C0_mult_28_n289
*214 i_DP_i_MULTIPLIER_C0_mult_28_n288
*215 i_DP_i_MULTIPLIER_C0_mult_28_n287
*216 i_DP_i_MULTIPLIER_C0_mult_28_n286
*217 i_DP_i_MULTIPLIER_C0_mult_28_n285
*218 i_DP_i_MULTIPLIER_C0_mult_28_n284
*219 i_DP_i_MULTIPLIER_C0_mult_28_n283
*220 i_DP_i_MULTIPLIER_C0_mult_28_n282
*221 i_DP_i_MULTIPLIER_C0_mult_28_n281
*222 i_DP_i_MULTIPLIER_C0_mult_28_n280
*223 i_DP_i_MULTIPLIER_C0_mult_28_n279
*224 i_DP_i_MULTIPLIER_C0_mult_28_n278
*225 i_DP_i_MULTIPLIER_C0_mult_28_n277
*226 i_DP_i_MULTIPLIER_C0_mult_28_n276
*227 i_DP_i_MULTIPLIER_C0_mult_28_n275
*228 i_DP_i_MULTIPLIER_C0_mult_28_n274
*229 i_DP_i_MULTIPLIER_C0_mult_28_n273
*230 i_DP_i_MULTIPLIER_C0_mult_28_n272
*231 i_DP_i_MULTIPLIER_C0_mult_28_n271
*232 i_DP_i_MULTIPLIER_C0_mult_28_n270
*233 i_DP_i_MULTIPLIER_C0_mult_28_n269
*234 i_DP_i_MULTIPLIER_C0_mult_28_n268
*235 i_DP_i_MULTIPLIER_C0_mult_28_n267
*236 i_DP_i_MULTIPLIER_C0_mult_28_n266
*237 i_DP_i_MULTIPLIER_C0_mult_28_n265
*238 i_DP_i_MULTIPLIER_C0_mult_28_n264
*239 i_DP_i_MULTIPLIER_C0_mult_28_n263
*240 i_DP_i_MULTIPLIER_C0_mult_28_n262
*241 i_DP_i_MULTIPLIER_C0_mult_28_n260
*242 i_DP_i_MULTIPLIER_C0_mult_28_n259
*243 i_DP_i_MULTIPLIER_C0_mult_28_n258
*244 i_DP_i_MULTIPLIER_C0_mult_28_n257
*245 i_DP_i_MULTIPLIER_C0_mult_28_n256
*246 i_DP_i_MULTIPLIER_C0_mult_28_n255
*247 i_DP_i_MULTIPLIER_C0_mult_28_n254
*248 i_DP_i_MULTIPLIER_C0_mult_28_n253
*249 i_DP_i_MULTIPLIER_C0_mult_28_n252
*250 i_DP_i_MULTIPLIER_C0_mult_28_n251
*251 i_DP_i_MULTIPLIER_C0_mult_28_n250
*252 i_DP_i_MULTIPLIER_C0_mult_28_n249
*253 i_DP_i_MULTIPLIER_C0_mult_28_n248
*254 i_DP_i_MULTIPLIER_C0_mult_28_n247
*255 i_DP_i_MULTIPLIER_C0_mult_28_n246
*256 i_DP_i_MULTIPLIER_C0_mult_28_n245
*257 i_DP_i_MULTIPLIER_C0_mult_28_n244
*258 i_DP_i_MULTIPLIER_C0_mult_28_n243
*259 i_DP_i_MULTIPLIER_C0_mult_28_n242
*260 i_DP_i_MULTIPLIER_C0_mult_28_n241
*261 i_DP_i_MULTIPLIER_C0_mult_28_n240
*262 i_DP_i_MULTIPLIER_C0_mult_28_n239
*263 i_DP_i_MULTIPLIER_C0_mult_28_n238
*264 i_DP_i_MULTIPLIER_C0_mult_28_n237
*265 i_DP_i_MULTIPLIER_C0_mult_28_n236
*266 i_DP_i_MULTIPLIER_C0_mult_28_n235
*267 i_DP_i_MULTIPLIER_C0_mult_28_n234
*268 i_DP_i_MULTIPLIER_C0_mult_28_n233
*269 i_DP_i_MULTIPLIER_C0_mult_28_n232
*270 i_DP_i_MULTIPLIER_C0_mult_28_n231
*271 i_DP_i_MULTIPLIER_C0_mult_28_n230
*272 i_DP_i_MULTIPLIER_C0_mult_28_n229
*273 i_DP_i_MULTIPLIER_C0_mult_28_n228
*274 i_DP_i_MULTIPLIER_C0_mult_28_n227
*275 i_DP_i_MULTIPLIER_C0_mult_28_n226
*276 i_DP_i_MULTIPLIER_C0_mult_28_n225
*277 i_DP_i_MULTIPLIER_C0_mult_28_n224
*278 i_DP_i_MULTIPLIER_C0_mult_28_n223
*279 i_DP_i_MULTIPLIER_C0_mult_28_n222
*280 i_DP_i_MULTIPLIER_C0_mult_28_n221
*281 i_DP_i_MULTIPLIER_C0_mult_28_n220
*282 i_DP_i_MULTIPLIER_C0_mult_28_n219
*283 i_DP_i_MULTIPLIER_C0_mult_28_n218
*284 i_DP_i_MULTIPLIER_C0_mult_28_n217
*285 i_DP_i_MULTIPLIER_C0_mult_28_n216
*286 i_DP_i_MULTIPLIER_C0_mult_28_n215
*287 i_DP_i_MULTIPLIER_C0_mult_28_n214
*288 i_DP_i_MULTIPLIER_C0_mult_28_n213
*289 i_DP_i_MULTIPLIER_C0_mult_28_n212
*290 i_DP_i_MULTIPLIER_C0_mult_28_n211
*291 i_DP_i_MULTIPLIER_C0_mult_28_n210
*292 i_DP_i_MULTIPLIER_C0_mult_28_n209
*293 i_DP_i_MULTIPLIER_C0_mult_28_n207
*294 i_DP_i_MULTIPLIER_C0_mult_28_n206
*295 i_DP_i_MULTIPLIER_C0_mult_28_n205
*296 i_DP_i_MULTIPLIER_C0_mult_28_n204
*297 i_DP_i_MULTIPLIER_C0_mult_28_n203
*298 i_DP_i_MULTIPLIER_C0_mult_28_n200
*299 i_DP_i_MULTIPLIER_C0_mult_28_n198
*300 i_DP_i_MULTIPLIER_C0_mult_28_n197
*301 i_DP_i_MULTIPLIER_C0_mult_28_n195
*302 i_DP_i_MULTIPLIER_C0_mult_28_n194
*303 i_DP_i_MULTIPLIER_C0_mult_28_n192
*304 i_DP_i_MULTIPLIER_C0_mult_28_n191
*305 i_DP_i_MULTIPLIER_C0_mult_28_n189
*306 i_DP_i_MULTIPLIER_C0_mult_28_n188
*307 i_DP_i_MULTIPLIER_C0_mult_28_n187
*308 i_DP_i_MULTIPLIER_C0_mult_28_n186
*309 i_DP_i_MULTIPLIER_C0_mult_28_n185
*310 i_DP_i_MULTIPLIER_C0_mult_28_n184
*311 i_DP_i_MULTIPLIER_C0_mult_28_n183
*312 i_DP_i_MULTIPLIER_C0_mult_28_n182
*313 i_DP_i_MULTIPLIER_C0_mult_28_n181
*314 i_DP_i_MULTIPLIER_C0_mult_28_n180
*315 i_DP_i_MULTIPLIER_C0_mult_28_n179
*316 i_DP_i_MULTIPLIER_C0_mult_28_n178
*317 i_DP_i_MULTIPLIER_C0_mult_28_n177
*318 i_DP_i_MULTIPLIER_C0_mult_28_n176
*319 i_DP_i_MULTIPLIER_C0_mult_28_n175
*320 i_DP_i_MULTIPLIER_C0_mult_28_n174
*321 i_DP_i_MULTIPLIER_C0_mult_28_n173
*322 i_DP_i_MULTIPLIER_C0_mult_28_n172
*323 i_DP_i_MULTIPLIER_C0_mult_28_n171
*324 i_DP_i_MULTIPLIER_C0_mult_28_n170
*325 i_DP_i_MULTIPLIER_C0_mult_28_n169
*326 i_DP_i_MULTIPLIER_C0_mult_28_n168
*327 i_DP_i_MULTIPLIER_C0_mult_28_n167
*328 i_DP_i_MULTIPLIER_C0_mult_28_n166
*329 i_DP_i_MULTIPLIER_C0_mult_28_n165
*330 i_DP_i_MULTIPLIER_C0_mult_28_n164
*331 i_DP_i_MULTIPLIER_C0_mult_28_n163
*332 i_DP_i_MULTIPLIER_C0_mult_28_n162
*333 i_DP_i_MULTIPLIER_C0_mult_28_n161
*334 i_DP_i_MULTIPLIER_C0_mult_28_n160
*335 i_DP_i_MULTIPLIER_C0_mult_28_n159
*336 i_DP_i_MULTIPLIER_C0_mult_28_n158
*337 i_DP_i_MULTIPLIER_C0_mult_28_n157
*338 i_DP_i_MULTIPLIER_C0_mult_28_n156
*339 i_DP_i_MULTIPLIER_C0_mult_28_n155
*340 i_DP_i_MULTIPLIER_C0_mult_28_n154
*341 i_DP_i_MULTIPLIER_C0_mult_28_n153
*342 i_DP_i_MULTIPLIER_C0_mult_28_n152
*343 i_DP_i_MULTIPLIER_C0_mult_28_n151
*344 i_DP_i_MULTIPLIER_C0_mult_28_n150
*345 i_DP_i_MULTIPLIER_C0_mult_28_n149
*346 i_DP_i_MULTIPLIER_C0_mult_28_n148
*347 i_DP_i_MULTIPLIER_C0_mult_28_n147
*348 i_DP_i_MULTIPLIER_C0_mult_28_n146
*349 i_DP_i_MULTIPLIER_C0_mult_28_n145
*350 i_DP_i_MULTIPLIER_C0_mult_28_n144
*351 i_DP_i_MULTIPLIER_C0_mult_28_n143
*352 i_DP_i_MULTIPLIER_C0_mult_28_n142
*353 i_DP_i_MULTIPLIER_C0_mult_28_n141
*354 i_DP_i_MULTIPLIER_C0_mult_28_n140
*355 i_DP_i_MULTIPLIER_C0_mult_28_n139
*356 i_DP_i_MULTIPLIER_C0_mult_28_n138
*357 i_DP_i_MULTIPLIER_C0_mult_28_n137
*358 i_DP_i_MULTIPLIER_C0_mult_28_n136
*359 i_DP_i_MULTIPLIER_C0_mult_28_n135
*360 i_DP_i_MULTIPLIER_C0_mult_28_n134
*361 i_DP_i_MULTIPLIER_C0_mult_28_n133
*362 i_DP_i_MULTIPLIER_C0_mult_28_n132
*363 i_DP_i_MULTIPLIER_C0_mult_28_n131
*364 i_DP_i_MULTIPLIER_C0_mult_28_n130
*365 i_DP_i_MULTIPLIER_C0_mult_28_n129
*366 i_DP_i_MULTIPLIER_C0_mult_28_n128
*367 i_DP_i_MULTIPLIER_C0_mult_28_n127
*368 i_DP_i_MULTIPLIER_C0_mult_28_n126
*369 i_DP_i_MULTIPLIER_C0_mult_28_n125
*370 i_DP_i_MULTIPLIER_C0_mult_28_n121
*371 i_DP_i_MULTIPLIER_C0_mult_28_n119
*372 i_DP_i_MULTIPLIER_C0_mult_28_n115
*373 i_DP_i_MULTIPLIER_C0_mult_28_n114
*374 i_DP_i_MULTIPLIER_C0_mult_28_n113
*375 i_DP_i_MULTIPLIER_C0_mult_28_n112
*376 i_DP_i_MULTIPLIER_C0_mult_28_n109
*377 i_DP_i_MULTIPLIER_C0_mult_28_n107
*378 i_DP_i_MULTIPLIER_C0_mult_28_n106
*379 i_DP_i_MULTIPLIER_C0_mult_28_n104
*380 i_DP_i_MULTIPLIER_C0_mult_28_n103
*381 i_DP_i_MULTIPLIER_C0_mult_28_n101
*382 i_DP_i_MULTIPLIER_C0_mult_28_n99
*383 i_DP_i_MULTIPLIER_C0_mult_28_n98
*384 i_DP_i_MULTIPLIER_C0_mult_28_n97
*385 i_DP_i_MULTIPLIER_C0_mult_28_n96
*386 i_DP_i_MULTIPLIER_C0_mult_28_n95
*387 i_DP_i_MULTIPLIER_C0_mult_28_n93
*388 i_DP_i_MULTIPLIER_C0_mult_28_n91
*389 i_DP_i_MULTIPLIER_C0_mult_28_n90
*390 i_DP_i_MULTIPLIER_C0_mult_28_n89
*391 i_DP_i_MULTIPLIER_C0_mult_28_n88
*392 i_DP_i_MULTIPLIER_C0_mult_28_n87
*393 i_DP_i_MULTIPLIER_C0_mult_28_n85
*394 i_DP_i_MULTIPLIER_C0_mult_28_n83
*395 i_DP_i_MULTIPLIER_C0_mult_28_n82
*396 i_DP_i_MULTIPLIER_C0_mult_28_n81
*397 i_DP_i_MULTIPLIER_C0_mult_28_n77
*398 i_DP_i_MULTIPLIER_C0_mult_28_n76
*399 i_DP_i_MULTIPLIER_C0_mult_28_n72
*400 i_DP_i_MULTIPLIER_C0_mult_28_n71
*401 i_DP_i_MULTIPLIER_C0_mult_28_n70
*402 i_DP_i_MULTIPLIER_C0_mult_28_n69
*403 i_DP_i_MULTIPLIER_C0_mult_28_n68
*404 i_DP_i_MULTIPLIER_C0_mult_28_n67
*405 i_DP_i_MULTIPLIER_C0_mult_28_n66
*406 i_DP_i_MULTIPLIER_C0_mult_28_n65
*407 i_DP_i_MULTIPLIER_C0_mult_28_n64
*408 i_DP_i_MULTIPLIER_C0_mult_28_n63
*409 i_DP_i_MULTIPLIER_C0_mult_28_n62
*410 i_DP_i_MULTIPLIER_C0_mult_28_n60
*411 i_DP_i_MULTIPLIER_C0_mult_28_n59
*412 i_DP_i_MULTIPLIER_C0_mult_28_n58
*413 i_DP_i_MULTIPLIER_C0_mult_28_n57
*414 i_DP_i_MULTIPLIER_C0_mult_28_n56
*415 i_DP_i_MULTIPLIER_C0_mult_28_n55
*416 i_DP_i_MULTIPLIER_C0_mult_28_n54
*417 i_DP_i_MULTIPLIER_C0_mult_28_n53
*418 i_DP_i_MULTIPLIER_C0_mult_28_n52
*419 i_DP_i_MULTIPLIER_C0_mult_28_n51
*420 i_DP_i_MULTIPLIER_C0_mult_28_n50
*421 i_DP_i_MULTIPLIER_C0_mult_28_n48
*422 i_DP_i_MULTIPLIER_C0_mult_28_n44
*423 i_DP_i_MULTIPLIER_C0_mult_28_n43
*424 i_DP_i_MULTIPLIER_C0_mult_28_n42
*425 i_DP_i_MULTIPLIER_C0_mult_28_n41
*426 i_DP_i_MULTIPLIER_C0_mult_28_n39
*427 i_DP_i_MULTIPLIER_C0_mult_28_n37
*428 i_DP_i_MULTIPLIER_C0_mult_28_n36
*429 i_DP_i_MULTIPLIER_C0_mult_28_n35
*430 i_DP_i_MULTIPLIER_C0_mult_28_n34
*431 i_DP_i_MULTIPLIER_C0_mult_28_n33
*432 i_DP_i_MULTIPLIER_C0_mult_28_n32
*433 i_DP_i_MULTIPLIER_C0_mult_28_n31
*434 i_DP_i_MULTIPLIER_C0_mult_28_n30
*435 i_DP_i_MULTIPLIER_C0_mult_28_n29
*436 i_DP_i_MULTIPLIER_C0_mult_28_n28
*437 i_DP_i_MULTIPLIER_C0_mult_28_n27
*438 i_DP_i_MULTIPLIER_C0_mult_28_n26
*439 i_DP_i_MULTIPLIER_C0_mult_28_n25
*440 i_DP_i_MULTIPLIER_C0_mult_28_n24
*441 i_DP_i_MULTIPLIER_C0_mult_28_n23
*442 i_DP_i_MULTIPLIER_C0_mult_28_n21
*443 i_DP_i_MULTIPLIER_C0_mult_28_n19
*444 i_DP_i_MULTIPLIER_C0_mult_28_n17
*445 i_DP_i_MULTIPLIER_C0_mult_28_n16
*446 i_DP_i_MULTIPLIER_C0_mult_28_n15
*447 i_DP_i_MULTIPLIER_C0_mult_28_n14
*448 i_DP_i_MULTIPLIER_C0_mult_28_n13
*449 i_DP_i_MULTIPLIER_C0_mult_28_n12
*450 i_DP_i_MULTIPLIER_C0_mult_28_n11
*451 i_DP_i_MULTIPLIER_C0_mult_28_n10
*452 i_DP_i_MULTIPLIER_C0_mult_28_n9
*453 i_DP_i_MULTIPLIER_C0_mult_28_n7
*454 i_DP_i_MULTIPLIER_C0_mult_28_n6
*455 i_DP_i_MULTIPLIER_C0_mult_28_n5
*456 i_DP_i_MULTIPLIER_C0_mult_28_n4
*457 i_DP_i_MULTIPLIER_C0_mult_28_n3
*458 i_DP_i_MULTIPLIER_C0_mult_28_n2
*459 i_DP_i_MULTIPLIER_C0_mult_28_n1
*460 i_DP_i_REG_MUL_C0_n7
*461 i_DP_i_REG_MUL_C0_n6
*462 i_DP_i_REG_MUL_C0_n5
*463 i_DP_i_REG_MUL_C0_n4
*464 i_DP_i_REG_MUL_C0_n3
*465 i_DP_i_REG_MUL_C0_n21
*466 i_DP_i_REG_MUL_C0_n20
*467 i_DP_i_REG_MUL_C0_n19
*468 i_DP_i_REG_MUL_C0_n18
*469 i_DP_i_REG_MUL_C0_n17
*470 i_DP_i_REG_MUL_C0_n16
*471 i_DP_i_REG_MUL_C0_n15
*472 i_DP_i_REG_MUL_C0_n14
*473 i_DP_i_REG_MUL_C0_n13
*474 i_DP_i_REG_MUL_C0_n12
*475 i_DP_i_REG_MUL_C0_n11
*476 i_DP_i_REG_MUL_C0_n10
*477 i_DP_i_REG_MUL_C0_n9
*478 i_DP_i_ADDER_0_N0
*479 i_DP_i_ADDER_0_N1
*480 i_DP_i_ADDER_0_N2
*481 i_DP_i_ADDER_0_N3
*482 i_DP_i_ADDER_0_N4
*483 i_DP_i_ADDER_0_N5
*484 i_DP_i_ADDER_0_N6
*485 i_DP_i_ADDER_0_N7
*486 i_DP_i_ADDER_0_N8
*487 i_DP_i_ADDER_0_N9
*488 i_DP_i_ADDER_0_add_0_root_add_0_root_add_29_2_n111
*489 i_DP_i_ADDER_0_add_0_root_add_0_root_add_29_2_n110
*490 i_DP_i_ADDER_0_add_0_root_add_0_root_add_29_2_n109
*491 i_DP_i_ADDER_0_add_0_root_add_0_root_add_29_2_n108
*492 i_DP_i_ADDER_0_add_0_root_add_0_root_add_29_2_n65
*493 i_DP_i_ADDER_0_add_0_root_add_0_root_add_29_2_n64
*494 i_DP_i_ADDER_0_add_0_root_add_0_root_add_29_2_n63
*495 i_DP_i_ADDER_0_add_0_root_add_0_root_add_29_2_n62
*496 i_DP_i_ADDER_0_add_0_root_add_0_root_add_29_2_n57
*497 i_DP_i_ADDER_0_add_0_root_add_0_root_add_29_2_n54
*498 i_DP_i_ADDER_0_add_0_root_add_0_root_add_29_2_n52
*499 i_DP_i_ADDER_0_add_0_root_add_0_root_add_29_2_n51
*500 i_DP_i_ADDER_0_add_0_root_add_0_root_add_29_2_n50
*501 i_DP_i_ADDER_0_add_0_root_add_0_root_add_29_2_n48
*502 i_DP_i_ADDER_0_add_0_root_add_0_root_add_29_2_n46
*503 i_DP_i_ADDER_0_add_0_root_add_0_root_add_29_2_n45
*504 i_DP_i_ADDER_0_add_0_root_add_0_root_add_29_2_n43
*505 i_DP_i_ADDER_0_add_0_root_add_0_root_add_29_2_n41
*506 i_DP_i_ADDER_0_add_0_root_add_0_root_add_29_2_n40
*507 i_DP_i_ADDER_0_add_0_root_add_0_root_add_29_2_n39
*508 i_DP_i_ADDER_0_add_0_root_add_0_root_add_29_2_n38
*509 i_DP_i_ADDER_0_add_0_root_add_0_root_add_29_2_n37
*510 i_DP_i_ADDER_0_add_0_root_add_0_root_add_29_2_n36
*511 i_DP_i_ADDER_0_add_0_root_add_0_root_add_29_2_n35
*512 i_DP_i_ADDER_0_add_0_root_add_0_root_add_29_2_n34
*513 i_DP_i_ADDER_0_add_0_root_add_0_root_add_29_2_n33
*514 i_DP_i_ADDER_0_add_0_root_add_0_root_add_29_2_n32
*515 i_DP_i_ADDER_0_add_0_root_add_0_root_add_29_2_n31
*516 i_DP_i_ADDER_0_add_0_root_add_0_root_add_29_2_n30
*517 i_DP_i_ADDER_0_add_0_root_add_0_root_add_29_2_n29
*518 i_DP_i_ADDER_0_add_0_root_add_0_root_add_29_2_n28
*519 i_DP_i_ADDER_0_add_0_root_add_0_root_add_29_2_n27
*520 i_DP_i_ADDER_0_add_0_root_add_0_root_add_29_2_n26
*521 i_DP_i_ADDER_0_add_0_root_add_0_root_add_29_2_n25
*522 i_DP_i_ADDER_0_add_0_root_add_0_root_add_29_2_n24
*523 i_DP_i_ADDER_0_add_0_root_add_0_root_add_29_2_n23
*524 i_DP_i_ADDER_0_add_0_root_add_0_root_add_29_2_n22
*525 i_DP_i_ADDER_0_add_0_root_add_0_root_add_29_2_n21
*526 i_DP_i_ADDER_0_add_0_root_add_0_root_add_29_2_n20
*527 i_DP_i_ADDER_0_add_0_root_add_0_root_add_29_2_n18
*528 i_DP_i_ADDER_0_add_0_root_add_0_root_add_29_2_n16
*529 i_DP_i_ADDER_0_add_0_root_add_0_root_add_29_2_n15
*530 i_DP_i_ADDER_0_add_0_root_add_0_root_add_29_2_n14
*531 i_DP_i_ADDER_0_add_0_root_add_0_root_add_29_2_n13
*532 i_DP_i_ADDER_0_add_0_root_add_0_root_add_29_2_n10
*533 i_DP_i_ADDER_0_add_0_root_add_0_root_add_29_2_n9
*534 i_DP_i_ADDER_0_add_0_root_add_0_root_add_29_2_n8
*535 i_DP_i_ADDER_0_add_0_root_add_0_root_add_29_2_n7
*536 i_DP_i_ADDER_0_add_0_root_add_0_root_add_29_2_n6
*537 i_DP_i_ADDER_0_add_0_root_add_0_root_add_29_2_n5
*538 i_DP_i_ADDER_0_add_0_root_add_0_root_add_29_2_n4
*539 i_DP_i_ADDER_0_add_0_root_add_0_root_add_29_2_n3
*540 i_DP_i_ADDER_0_add_0_root_add_0_root_add_29_2_n2
*541 i_DP_i_ADDER_0_add_0_root_add_0_root_add_29_2_n1
*542 i_DP_i_ADDER_0_add_1_root_add_0_root_add_29_2_n110
*543 i_DP_i_ADDER_0_add_1_root_add_0_root_add_29_2_n109
*544 i_DP_i_ADDER_0_add_1_root_add_0_root_add_29_2_n68
*545 i_DP_i_ADDER_0_add_1_root_add_0_root_add_29_2_n67
*546 i_DP_i_ADDER_0_add_1_root_add_0_root_add_29_2_n66
*547 i_DP_i_ADDER_0_add_1_root_add_0_root_add_29_2_n65
*548 i_DP_i_ADDER_0_add_1_root_add_0_root_add_29_2_n64
*549 i_DP_i_ADDER_0_add_1_root_add_0_root_add_29_2_n63
*550 i_DP_i_ADDER_0_add_1_root_add_0_root_add_29_2_n57
*551 i_DP_i_ADDER_0_add_1_root_add_0_root_add_29_2_n56
*552 i_DP_i_ADDER_0_add_1_root_add_0_root_add_29_2_n55
*553 i_DP_i_ADDER_0_add_1_root_add_0_root_add_29_2_n54
*554 i_DP_i_ADDER_0_add_1_root_add_0_root_add_29_2_n53
*555 i_DP_i_ADDER_0_add_1_root_add_0_root_add_29_2_n52
*556 i_DP_i_ADDER_0_add_1_root_add_0_root_add_29_2_n51
*557 i_DP_i_ADDER_0_add_1_root_add_0_root_add_29_2_n50
*558 i_DP_i_ADDER_0_add_1_root_add_0_root_add_29_2_n49
*559 i_DP_i_ADDER_0_add_1_root_add_0_root_add_29_2_n48
*560 i_DP_i_ADDER_0_add_1_root_add_0_root_add_29_2_n47
*561 i_DP_i_ADDER_0_add_1_root_add_0_root_add_29_2_n46
*562 i_DP_i_ADDER_0_add_1_root_add_0_root_add_29_2_n45
*563 i_DP_i_ADDER_0_add_1_root_add_0_root_add_29_2_n44
*564 i_DP_i_ADDER_0_add_1_root_add_0_root_add_29_2_n43
*565 i_DP_i_ADDER_0_add_1_root_add_0_root_add_29_2_n41
*566 i_DP_i_ADDER_0_add_1_root_add_0_root_add_29_2_n40
*567 i_DP_i_ADDER_0_add_1_root_add_0_root_add_29_2_n39
*568 i_DP_i_ADDER_0_add_1_root_add_0_root_add_29_2_n36
*569 i_DP_i_ADDER_0_add_1_root_add_0_root_add_29_2_n35
*570 i_DP_i_ADDER_0_add_1_root_add_0_root_add_29_2_n34
*571 i_DP_i_ADDER_0_add_1_root_add_0_root_add_29_2_n33
*572 i_DP_i_ADDER_0_add_1_root_add_0_root_add_29_2_n32
*573 i_DP_i_ADDER_0_add_1_root_add_0_root_add_29_2_n31
*574 i_DP_i_ADDER_0_add_1_root_add_0_root_add_29_2_n28
*575 i_DP_i_ADDER_0_add_1_root_add_0_root_add_29_2_n27
*576 i_DP_i_ADDER_0_add_1_root_add_0_root_add_29_2_n26
*577 i_DP_i_ADDER_0_add_1_root_add_0_root_add_29_2_n25
*578 i_DP_i_ADDER_0_add_1_root_add_0_root_add_29_2_n24
*579 i_DP_i_ADDER_0_add_1_root_add_0_root_add_29_2_n23
*580 i_DP_i_ADDER_0_add_1_root_add_0_root_add_29_2_n22
*581 i_DP_i_ADDER_0_add_1_root_add_0_root_add_29_2_n21
*582 i_DP_i_ADDER_0_add_1_root_add_0_root_add_29_2_n20
*583 i_DP_i_ADDER_0_add_1_root_add_0_root_add_29_2_n19
*584 i_DP_i_ADDER_0_add_1_root_add_0_root_add_29_2_n18
*585 i_DP_i_ADDER_0_add_1_root_add_0_root_add_29_2_n17
*586 i_DP_i_ADDER_0_add_1_root_add_0_root_add_29_2_n15
*587 i_DP_i_ADDER_0_add_1_root_add_0_root_add_29_2_n13
*588 i_DP_i_ADDER_0_add_1_root_add_0_root_add_29_2_n12
*589 i_DP_i_ADDER_0_add_1_root_add_0_root_add_29_2_n8
*590 i_DP_i_ADDER_0_add_1_root_add_0_root_add_29_2_n7
*591 i_DP_i_ADDER_0_add_1_root_add_0_root_add_29_2_n6
*592 i_DP_i_ADDER_0_add_1_root_add_0_root_add_29_2_n5
*593 i_DP_i_ADDER_0_add_1_root_add_0_root_add_29_2_n4
*594 i_DP_i_ADDER_0_add_1_root_add_0_root_add_29_2_n3
*595 i_DP_i_ADDER_0_add_1_root_add_0_root_add_29_2_n2
*596 i_DP_i_ADDER_0_add_1_root_add_0_root_add_29_2_n1
*597 i_DP_i_REG_DEL_1_n10
*598 i_DP_i_REG_DEL_1_n4
*599 i_DP_i_REG_DEL_1_n2
*600 i_DP_i_REG_DEL_1_n30
*601 i_DP_i_REG_DEL_1_n29
*602 i_DP_i_REG_DEL_1_n28
*603 i_DP_i_REG_DEL_1_n27
*604 i_DP_i_REG_DEL_1_n26
*605 i_DP_i_REG_DEL_1_n25
*606 i_DP_i_REG_DEL_1_n24
*607 i_DP_i_REG_DEL_1_n23
*608 i_DP_i_REG_DEL_1_n22
*609 i_DP_i_REG_DEL_1_n21
*610 i_DP_i_REG_DEL_1_n20
*611 i_DP_i_REG_DEL_1_n19
*612 i_DP_i_REG_DEL_1_n18
*613 i_DP_i_REG_DEL_1_n17
*614 i_DP_i_REG_DEL_1_n16
*615 i_DP_i_REG_DEL_1_n15
*616 i_DP_i_REG_DEL_1_n14
*617 i_DP_i_REG_DEL_1_n13
*618 i_DP_i_REG_DEL_1_n12
*619 i_DP_i_REG_DEL_1_n11
*620 i_DP_i_REG_DEL_1_n36
*621 i_DP_i_REG_DEL_1_n35
*622 i_DP_i_REG_DEL_1_n34
*623 i_DP_i_REG_DEL_1_n33
*624 i_DP_i_REG_DEL_1_n32
*625 i_DP_i_MULTIPLIER_C1_MULTIPLIER_OUT_P_0_
*626 i_DP_i_MULTIPLIER_C1_MULTIPLIER_OUT_P_1_
*627 i_DP_i_MULTIPLIER_C1_MULTIPLIER_OUT_P_2_
*628 i_DP_i_MULTIPLIER_C1_MULTIPLIER_OUT_P_3_
*629 i_DP_i_MULTIPLIER_C1_MULTIPLIER_OUT_P_4_
*630 i_DP_i_MULTIPLIER_C1_MULTIPLIER_OUT_P_5_
*631 i_DP_i_MULTIPLIER_C1_MULTIPLIER_OUT_P_6_
*632 i_DP_i_MULTIPLIER_C1_MULTIPLIER_OUT_P_7_
*633 i_DP_i_MULTIPLIER_C1_MULTIPLIER_OUT_P_8_
*634 i_DP_i_MULTIPLIER_C1_MULTIPLIER_OUT_P_9_
*635 i_DP_i_MULTIPLIER_C1_MULTIPLIER_OUT_P_17_
*636 i_DP_i_MULTIPLIER_C1_MULTIPLIER_OUT_P_18_
*637 i_DP_i_MULTIPLIER_C1_MULTIPLIER_OUT_P_19_
*638 i_DP_i_MULTIPLIER_C1_mult_28_n512
*639 i_DP_i_MULTIPLIER_C1_mult_28_n510
*640 i_DP_i_MULTIPLIER_C1_mult_28_n509
*641 i_DP_i_MULTIPLIER_C1_mult_28_n507
*642 i_DP_i_MULTIPLIER_C1_mult_28_n506
*643 i_DP_i_MULTIPLIER_C1_mult_28_n498
*644 i_DP_i_MULTIPLIER_C1_mult_28_n497
*645 i_DP_i_MULTIPLIER_C1_mult_28_n496
*646 i_DP_i_MULTIPLIER_C1_mult_28_n495
*647 i_DP_i_MULTIPLIER_C1_mult_28_n494
*648 i_DP_i_MULTIPLIER_C1_mult_28_n486
*649 i_DP_i_MULTIPLIER_C1_mult_28_n485
*650 i_DP_i_MULTIPLIER_C1_mult_28_n484
*651 i_DP_i_MULTIPLIER_C1_mult_28_n483
*652 i_DP_i_MULTIPLIER_C1_mult_28_n482
*653 i_DP_i_MULTIPLIER_C1_mult_28_n481
*654 i_DP_i_MULTIPLIER_C1_mult_28_n480
*655 i_DP_i_MULTIPLIER_C1_mult_28_n478
*656 i_DP_i_MULTIPLIER_C1_mult_28_n477
*657 i_DP_i_MULTIPLIER_C1_mult_28_n476
*658 i_DP_i_MULTIPLIER_C1_mult_28_n475
*659 i_DP_i_MULTIPLIER_C1_mult_28_n474
*660 i_DP_i_MULTIPLIER_C1_mult_28_n472
*661 i_DP_i_MULTIPLIER_C1_mult_28_n471
*662 i_DP_i_MULTIPLIER_C1_mult_28_n470
*663 i_DP_i_MULTIPLIER_C1_mult_28_n469
*664 i_DP_i_MULTIPLIER_C1_mult_28_n462
*665 i_DP_i_MULTIPLIER_C1_mult_28_n458
*666 i_DP_i_MULTIPLIER_C1_mult_28_n456
*667 i_DP_i_MULTIPLIER_C1_mult_28_n455
*668 i_DP_i_MULTIPLIER_C1_mult_28_n454
*669 i_DP_i_MULTIPLIER_C1_mult_28_n452
*670 i_DP_i_MULTIPLIER_C1_mult_28_n451
*671 i_DP_i_MULTIPLIER_C1_mult_28_n450
*672 i_DP_i_MULTIPLIER_C1_mult_28_n449
*673 i_DP_i_MULTIPLIER_C1_mult_28_n448
*674 i_DP_i_MULTIPLIER_C1_mult_28_n447
*675 i_DP_i_MULTIPLIER_C1_mult_28_n446
*676 i_DP_i_MULTIPLIER_C1_mult_28_n445
*677 i_DP_i_MULTIPLIER_C1_mult_28_n444
*678 i_DP_i_MULTIPLIER_C1_mult_28_n443
*679 i_DP_i_MULTIPLIER_C1_mult_28_n442
*680 i_DP_i_MULTIPLIER_C1_mult_28_n441
*681 i_DP_i_MULTIPLIER_C1_mult_28_n440
*682 i_DP_i_MULTIPLIER_C1_mult_28_n439
*683 i_DP_i_MULTIPLIER_C1_mult_28_n438
*684 i_DP_i_MULTIPLIER_C1_mult_28_n437
*685 i_DP_i_MULTIPLIER_C1_mult_28_n431
*686 i_DP_i_MULTIPLIER_C1_mult_28_n428
*687 i_DP_i_MULTIPLIER_C1_mult_28_n361
*688 i_DP_i_MULTIPLIER_C1_mult_28_n360
*689 i_DP_i_MULTIPLIER_C1_mult_28_n358
*690 i_DP_i_MULTIPLIER_C1_mult_28_n357
*691 i_DP_i_MULTIPLIER_C1_mult_28_n356
*692 i_DP_i_MULTIPLIER_C1_mult_28_n355
*693 i_DP_i_MULTIPLIER_C1_mult_28_n354
*694 i_DP_i_MULTIPLIER_C1_mult_28_n353
*695 i_DP_i_MULTIPLIER_C1_mult_28_n351
*696 i_DP_i_MULTIPLIER_C1_mult_28_n348
*697 i_DP_i_MULTIPLIER_C1_mult_28_n337
*698 i_DP_i_MULTIPLIER_C1_mult_28_n336
*699 i_DP_i_MULTIPLIER_C1_mult_28_n335
*700 i_DP_i_MULTIPLIER_C1_mult_28_n334
*701 i_DP_i_MULTIPLIER_C1_mult_28_n333
*702 i_DP_i_MULTIPLIER_C1_mult_28_n332
*703 i_DP_i_MULTIPLIER_C1_mult_28_n331
*704 i_DP_i_MULTIPLIER_C1_mult_28_n330
*705 i_DP_i_MULTIPLIER_C1_mult_28_n329
*706 i_DP_i_MULTIPLIER_C1_mult_28_n328
*707 i_DP_i_MULTIPLIER_C1_mult_28_n327
*708 i_DP_i_MULTIPLIER_C1_mult_28_n326
*709 i_DP_i_MULTIPLIER_C1_mult_28_n325
*710 i_DP_i_MULTIPLIER_C1_mult_28_n324
*711 i_DP_i_MULTIPLIER_C1_mult_28_n323
*712 i_DP_i_MULTIPLIER_C1_mult_28_n322
*713 i_DP_i_MULTIPLIER_C1_mult_28_n321
*714 i_DP_i_MULTIPLIER_C1_mult_28_n320
*715 i_DP_i_MULTIPLIER_C1_mult_28_n319
*716 i_DP_i_MULTIPLIER_C1_mult_28_n318
*717 i_DP_i_MULTIPLIER_C1_mult_28_n317
*718 i_DP_i_MULTIPLIER_C1_mult_28_n316
*719 i_DP_i_MULTIPLIER_C1_mult_28_n315
*720 i_DP_i_MULTIPLIER_C1_mult_28_n314
*721 i_DP_i_MULTIPLIER_C1_mult_28_n313
*722 i_DP_i_MULTIPLIER_C1_mult_28_n312
*723 i_DP_i_MULTIPLIER_C1_mult_28_n311
*724 i_DP_i_MULTIPLIER_C1_mult_28_n310
*725 i_DP_i_MULTIPLIER_C1_mult_28_n309
*726 i_DP_i_MULTIPLIER_C1_mult_28_n308
*727 i_DP_i_MULTIPLIER_C1_mult_28_n307
*728 i_DP_i_MULTIPLIER_C1_mult_28_n306
*729 i_DP_i_MULTIPLIER_C1_mult_28_n305
*730 i_DP_i_MULTIPLIER_C1_mult_28_n304
*731 i_DP_i_MULTIPLIER_C1_mult_28_n303
*732 i_DP_i_MULTIPLIER_C1_mult_28_n302
*733 i_DP_i_MULTIPLIER_C1_mult_28_n301
*734 i_DP_i_MULTIPLIER_C1_mult_28_n300
*735 i_DP_i_MULTIPLIER_C1_mult_28_n299
*736 i_DP_i_MULTIPLIER_C1_mult_28_n298
*737 i_DP_i_MULTIPLIER_C1_mult_28_n297
*738 i_DP_i_MULTIPLIER_C1_mult_28_n296
*739 i_DP_i_MULTIPLIER_C1_mult_28_n295
*740 i_DP_i_MULTIPLIER_C1_mult_28_n294
*741 i_DP_i_MULTIPLIER_C1_mult_28_n293
*742 i_DP_i_MULTIPLIER_C1_mult_28_n292
*743 i_DP_i_MULTIPLIER_C1_mult_28_n291
*744 i_DP_i_MULTIPLIER_C1_mult_28_n290
*745 i_DP_i_MULTIPLIER_C1_mult_28_n289
*746 i_DP_i_MULTIPLIER_C1_mult_28_n288
*747 i_DP_i_MULTIPLIER_C1_mult_28_n287
*748 i_DP_i_MULTIPLIER_C1_mult_28_n286
*749 i_DP_i_MULTIPLIER_C1_mult_28_n285
*750 i_DP_i_MULTIPLIER_C1_mult_28_n284
*751 i_DP_i_MULTIPLIER_C1_mult_28_n283
*752 i_DP_i_MULTIPLIER_C1_mult_28_n282
*753 i_DP_i_MULTIPLIER_C1_mult_28_n281
*754 i_DP_i_MULTIPLIER_C1_mult_28_n280
*755 i_DP_i_MULTIPLIER_C1_mult_28_n279
*756 i_DP_i_MULTIPLIER_C1_mult_28_n278
*757 i_DP_i_MULTIPLIER_C1_mult_28_n277
*758 i_DP_i_MULTIPLIER_C1_mult_28_n276
*759 i_DP_i_MULTIPLIER_C1_mult_28_n275
*760 i_DP_i_MULTIPLIER_C1_mult_28_n274
*761 i_DP_i_MULTIPLIER_C1_mult_28_n273
*762 i_DP_i_MULTIPLIER_C1_mult_28_n272
*763 i_DP_i_MULTIPLIER_C1_mult_28_n271
*764 i_DP_i_MULTIPLIER_C1_mult_28_n270
*765 i_DP_i_MULTIPLIER_C1_mult_28_n269
*766 i_DP_i_MULTIPLIER_C1_mult_28_n268
*767 i_DP_i_MULTIPLIER_C1_mult_28_n267
*768 i_DP_i_MULTIPLIER_C1_mult_28_n266
*769 i_DP_i_MULTIPLIER_C1_mult_28_n265
*770 i_DP_i_MULTIPLIER_C1_mult_28_n264
*771 i_DP_i_MULTIPLIER_C1_mult_28_n263
*772 i_DP_i_MULTIPLIER_C1_mult_28_n262
*773 i_DP_i_MULTIPLIER_C1_mult_28_n261
*774 i_DP_i_MULTIPLIER_C1_mult_28_n260
*775 i_DP_i_MULTIPLIER_C1_mult_28_n259
*776 i_DP_i_MULTIPLIER_C1_mult_28_n258
*777 i_DP_i_MULTIPLIER_C1_mult_28_n257
*778 i_DP_i_MULTIPLIER_C1_mult_28_n256
*779 i_DP_i_MULTIPLIER_C1_mult_28_n255
*780 i_DP_i_MULTIPLIER_C1_mult_28_n254
*781 i_DP_i_MULTIPLIER_C1_mult_28_n253
*782 i_DP_i_MULTIPLIER_C1_mult_28_n252
*783 i_DP_i_MULTIPLIER_C1_mult_28_n251
*784 i_DP_i_MULTIPLIER_C1_mult_28_n250
*785 i_DP_i_MULTIPLIER_C1_mult_28_n249
*786 i_DP_i_MULTIPLIER_C1_mult_28_n248
*787 i_DP_i_MULTIPLIER_C1_mult_28_n247
*788 i_DP_i_MULTIPLIER_C1_mult_28_n246
*789 i_DP_i_MULTIPLIER_C1_mult_28_n245
*790 i_DP_i_MULTIPLIER_C1_mult_28_n244
*791 i_DP_i_MULTIPLIER_C1_mult_28_n243
*792 i_DP_i_MULTIPLIER_C1_mult_28_n242
*793 i_DP_i_MULTIPLIER_C1_mult_28_n241
*794 i_DP_i_MULTIPLIER_C1_mult_28_n240
*795 i_DP_i_MULTIPLIER_C1_mult_28_n239